
---------- Begin Simulation Statistics ----------
sim_seconds                                  0.000044                       # Number of seconds simulated
sim_ticks                                    44318000                       # Number of ticks simulated
final_tick                                   44318000                       # Number of ticks from beginning of simulation (restored from checkpoints and never reset)
sim_freq                                 1000000000000                       # Frequency of simulated ticks
host_inst_rate                                  38250                       # Simulator instruction rate (inst/s)
host_op_rate                                    75911                       # Simulator op (including micro ops) rate (op/s)
host_tick_rate                              168031084                       # Simulator tick rate (ticks/s)
host_mem_usage                                 659648                       # Number of bytes of host memory used
host_seconds                                     0.26                       # Real time elapsed on the host
sim_insts                                       10088                       # Number of instructions simulated
sim_ops                                         20021                       # Number of ops (including micro ops) simulated
system.clk_domain.voltage_domain.voltage            1                       # Voltage in Volts
system.clk_domain.clock                           500                       # Clock period in ticks
system.mem_ctrl.pwrStateResidencyTicks::UNDEFINED     44318000                       # Cumulative time (in ticks) in various power states
system.mem_ctrl.bytes_read::.cpu.inst           30144                       # Number of bytes read from this memory
system.mem_ctrl.bytes_read::.cpu.data           14656                       # Number of bytes read from this memory
system.mem_ctrl.bytes_read::total               44800                       # Number of bytes read from this memory
system.mem_ctrl.bytes_inst_read::.cpu.inst        30144                       # Number of instructions bytes read from this memory
system.mem_ctrl.bytes_inst_read::total          30144                       # Number of instructions bytes read from this memory
system.mem_ctrl.num_reads::.cpu.inst              471                       # Number of read requests responded to by this memory
system.mem_ctrl.num_reads::.cpu.data              229                       # Number of read requests responded to by this memory
system.mem_ctrl.num_reads::total                  700                       # Number of read requests responded to by this memory
system.mem_ctrl.bw_read::.cpu.inst          680175098                       # Total read bandwidth from this memory (bytes/s)
system.mem_ctrl.bw_read::.cpu.data          330700844                       # Total read bandwidth from this memory (bytes/s)
system.mem_ctrl.bw_read::total             1010875942                       # Total read bandwidth from this memory (bytes/s)
system.mem_ctrl.bw_inst_read::.cpu.inst     680175098                       # Instruction read bandwidth from this memory (bytes/s)
system.mem_ctrl.bw_inst_read::total         680175098                       # Instruction read bandwidth from this memory (bytes/s)
system.mem_ctrl.bw_total::.cpu.inst         680175098                       # Total bandwidth to/from this memory (bytes/s)
system.mem_ctrl.bw_total::.cpu.data         330700844                       # Total bandwidth to/from this memory (bytes/s)
system.mem_ctrl.bw_total::total            1010875942                       # Total bandwidth to/from this memory (bytes/s)
system.mem_ctrl.avgPriority_.cpu.inst::samples       471.00                       # Average QoS priority value for accepted requests
system.mem_ctrl.avgPriority_.cpu.data::samples       229.00                       # Average QoS priority value for accepted requests
system.mem_ctrl.priorityMinLatency       0.000000018750                       # per QoS priority minimum request to response latency (s)
system.mem_ctrl.priorityMaxLatency       0.000000596250                       # per QoS priority maximum request to response latency (s)
system.mem_ctrl.numReadWriteTurnArounds             0                       # Number of turnarounds from READ to WRITE
system.mem_ctrl.numWriteReadTurnArounds             0                       # Number of turnarounds from WRITE to READ
system.mem_ctrl.numStayReadState                 1401                       # Number of times bus staying in READ state
system.mem_ctrl.numStayWriteState                   0                       # Number of times bus staying in WRITE state
system.mem_ctrl.readReqs                          700                       # Number of read requests accepted
system.mem_ctrl.writeReqs                           0                       # Number of write requests accepted
system.mem_ctrl.readBursts                        700                       # Number of DRAM read bursts, including those serviced by the write queue
system.mem_ctrl.writeBursts                         0                       # Number of DRAM write bursts, including those merged in the write queue
system.mem_ctrl.bytesReadDRAM                   44800                       # Total number of bytes read from DRAM
system.mem_ctrl.bytesReadWrQ                        0                       # Total number of bytes read from write queue
system.mem_ctrl.bytesWritten                        0                       # Total number of bytes written to DRAM
system.mem_ctrl.bytesReadSys                    44800                       # Total read bytes from the system interface side
system.mem_ctrl.bytesWrittenSys                     0                       # Total written bytes from the system interface side
system.mem_ctrl.servicedByWrQ                       0                       # Number of DRAM read bursts serviced by the write queue
system.mem_ctrl.mergedWrBursts                      0                       # Number of DRAM write bursts merged with an existing one
system.mem_ctrl.neitherReadNorWriteReqs             0                       # Number of requests that are neither read nor write
system.mem_ctrl.perBankRdBursts::0                116                       # Per bank write bursts
system.mem_ctrl.perBankRdBursts::1                 19                       # Per bank write bursts
system.mem_ctrl.perBankRdBursts::2                 24                       # Per bank write bursts
system.mem_ctrl.perBankRdBursts::3                  7                       # Per bank write bursts
system.mem_ctrl.perBankRdBursts::4                  6                       # Per bank write bursts
system.mem_ctrl.perBankRdBursts::5                 17                       # Per bank write bursts
system.mem_ctrl.perBankRdBursts::6                 64                       # Per bank write bursts
system.mem_ctrl.perBankRdBursts::7                 39                       # Per bank write bursts
system.mem_ctrl.perBankRdBursts::8                  8                       # Per bank write bursts
system.mem_ctrl.perBankRdBursts::9                 28                       # Per bank write bursts
system.mem_ctrl.perBankRdBursts::10                49                       # Per bank write bursts
system.mem_ctrl.perBankRdBursts::11                21                       # Per bank write bursts
system.mem_ctrl.perBankRdBursts::12               100                       # Per bank write bursts
system.mem_ctrl.perBankRdBursts::13                64                       # Per bank write bursts
system.mem_ctrl.perBankRdBursts::14               102                       # Per bank write bursts
system.mem_ctrl.perBankRdBursts::15                36                       # Per bank write bursts
system.mem_ctrl.perBankWrBursts::0                  0                       # Per bank write bursts
system.mem_ctrl.perBankWrBursts::1                  0                       # Per bank write bursts
system.mem_ctrl.perBankWrBursts::2                  0                       # Per bank write bursts
system.mem_ctrl.perBankWrBursts::3                  0                       # Per bank write bursts
system.mem_ctrl.perBankWrBursts::4                  0                       # Per bank write bursts
system.mem_ctrl.perBankWrBursts::5                  0                       # Per bank write bursts
system.mem_ctrl.perBankWrBursts::6                  0                       # Per bank write bursts
system.mem_ctrl.perBankWrBursts::7                  0                       # Per bank write bursts
system.mem_ctrl.perBankWrBursts::8                  0                       # Per bank write bursts
system.mem_ctrl.perBankWrBursts::9                  0                       # Per bank write bursts
system.mem_ctrl.perBankWrBursts::10                 0                       # Per bank write bursts
system.mem_ctrl.perBankWrBursts::11                 0                       # Per bank write bursts
system.mem_ctrl.perBankWrBursts::12                 0                       # Per bank write bursts
system.mem_ctrl.perBankWrBursts::13                 0                       # Per bank write bursts
system.mem_ctrl.perBankWrBursts::14                 0                       # Per bank write bursts
system.mem_ctrl.perBankWrBursts::15                 0                       # Per bank write bursts
system.mem_ctrl.numRdRetry                          0                       # Number of times read queue was full causing retry
system.mem_ctrl.numWrRetry                          0                       # Number of times write queue was full causing retry
system.mem_ctrl.totGap                       44234500                       # Total gap between requests
system.mem_ctrl.readPktSize::0                      0                       # Read request sizes (log2)
system.mem_ctrl.readPktSize::1                      0                       # Read request sizes (log2)
system.mem_ctrl.readPktSize::2                      0                       # Read request sizes (log2)
system.mem_ctrl.readPktSize::3                      0                       # Read request sizes (log2)
system.mem_ctrl.readPktSize::4                      0                       # Read request sizes (log2)
system.mem_ctrl.readPktSize::5                      0                       # Read request sizes (log2)
system.mem_ctrl.readPktSize::6                    700                       # Read request sizes (log2)
system.mem_ctrl.writePktSize::0                     0                       # Write request sizes (log2)
system.mem_ctrl.writePktSize::1                     0                       # Write request sizes (log2)
system.mem_ctrl.writePktSize::2                     0                       # Write request sizes (log2)
system.mem_ctrl.writePktSize::3                     0                       # Write request sizes (log2)
system.mem_ctrl.writePktSize::4                     0                       # Write request sizes (log2)
system.mem_ctrl.writePktSize::5                     0                       # Write request sizes (log2)
system.mem_ctrl.writePktSize::6                     0                       # Write request sizes (log2)
system.mem_ctrl.rdQLenPdf::0                      454                       # What read queue length does an incoming req see
system.mem_ctrl.rdQLenPdf::1                      195                       # What read queue length does an incoming req see
system.mem_ctrl.rdQLenPdf::2                       40                       # What read queue length does an incoming req see
system.mem_ctrl.rdQLenPdf::3                        7                       # What read queue length does an incoming req see
system.mem_ctrl.rdQLenPdf::4                        4                       # What read queue length does an incoming req see
system.mem_ctrl.rdQLenPdf::5                        0                       # What read queue length does an incoming req see
system.mem_ctrl.rdQLenPdf::6                        0                       # What read queue length does an incoming req see
system.mem_ctrl.rdQLenPdf::7                        0                       # What read queue length does an incoming req see
system.mem_ctrl.rdQLenPdf::8                        0                       # What read queue length does an incoming req see
system.mem_ctrl.rdQLenPdf::9                        0                       # What read queue length does an incoming req see
system.mem_ctrl.rdQLenPdf::10                       0                       # What read queue length does an incoming req see
system.mem_ctrl.rdQLenPdf::11                       0                       # What read queue length does an incoming req see
system.mem_ctrl.rdQLenPdf::12                       0                       # What read queue length does an incoming req see
system.mem_ctrl.rdQLenPdf::13                       0                       # What read queue length does an incoming req see
system.mem_ctrl.rdQLenPdf::14                       0                       # What read queue length does an incoming req see
system.mem_ctrl.rdQLenPdf::15                       0                       # What read queue length does an incoming req see
system.mem_ctrl.rdQLenPdf::16                       0                       # What read queue length does an incoming req see
system.mem_ctrl.rdQLenPdf::17                       0                       # What read queue length does an incoming req see
system.mem_ctrl.rdQLenPdf::18                       0                       # What read queue length does an incoming req see
system.mem_ctrl.rdQLenPdf::19                       0                       # What read queue length does an incoming req see
system.mem_ctrl.rdQLenPdf::20                       0                       # What read queue length does an incoming req see
system.mem_ctrl.rdQLenPdf::21                       0                       # What read queue length does an incoming req see
system.mem_ctrl.rdQLenPdf::22                       0                       # What read queue length does an incoming req see
system.mem_ctrl.rdQLenPdf::23                       0                       # What read queue length does an incoming req see
system.mem_ctrl.rdQLenPdf::24                       0                       # What read queue length does an incoming req see
system.mem_ctrl.rdQLenPdf::25                       0                       # What read queue length does an incoming req see
system.mem_ctrl.rdQLenPdf::26                       0                       # What read queue length does an incoming req see
system.mem_ctrl.rdQLenPdf::27                       0                       # What read queue length does an incoming req see
system.mem_ctrl.rdQLenPdf::28                       0                       # What read queue length does an incoming req see
system.mem_ctrl.rdQLenPdf::29                       0                       # What read queue length does an incoming req see
system.mem_ctrl.rdQLenPdf::30                       0                       # What read queue length does an incoming req see
system.mem_ctrl.rdQLenPdf::31                       0                       # What read queue length does an incoming req see
system.mem_ctrl.wrQLenPdf::0                        0                       # What write queue length does an incoming req see
system.mem_ctrl.wrQLenPdf::1                        0                       # What write queue length does an incoming req see
system.mem_ctrl.wrQLenPdf::2                        0                       # What write queue length does an incoming req see
system.mem_ctrl.wrQLenPdf::3                        0                       # What write queue length does an incoming req see
system.mem_ctrl.wrQLenPdf::4                        0                       # What write queue length does an incoming req see
system.mem_ctrl.wrQLenPdf::5                        0                       # What write queue length does an incoming req see
system.mem_ctrl.wrQLenPdf::6                        0                       # What write queue length does an incoming req see
system.mem_ctrl.wrQLenPdf::7                        0                       # What write queue length does an incoming req see
system.mem_ctrl.wrQLenPdf::8                        0                       # What write queue length does an incoming req see
system.mem_ctrl.wrQLenPdf::9                        0                       # What write queue length does an incoming req see
system.mem_ctrl.wrQLenPdf::10                       0                       # What write queue length does an incoming req see
system.mem_ctrl.wrQLenPdf::11                       0                       # What write queue length does an incoming req see
system.mem_ctrl.wrQLenPdf::12                       0                       # What write queue length does an incoming req see
system.mem_ctrl.wrQLenPdf::13                       0                       # What write queue length does an incoming req see
system.mem_ctrl.wrQLenPdf::14                       0                       # What write queue length does an incoming req see
system.mem_ctrl.wrQLenPdf::15                       0                       # What write queue length does an incoming req see
system.mem_ctrl.wrQLenPdf::16                       0                       # What write queue length does an incoming req see
system.mem_ctrl.wrQLenPdf::17                       0                       # What write queue length does an incoming req see
system.mem_ctrl.wrQLenPdf::18                       0                       # What write queue length does an incoming req see
system.mem_ctrl.wrQLenPdf::19                       0                       # What write queue length does an incoming req see
system.mem_ctrl.wrQLenPdf::20                       0                       # What write queue length does an incoming req see
system.mem_ctrl.wrQLenPdf::21                       0                       # What write queue length does an incoming req see
system.mem_ctrl.wrQLenPdf::22                       0                       # What write queue length does an incoming req see
system.mem_ctrl.wrQLenPdf::23                       0                       # What write queue length does an incoming req see
system.mem_ctrl.wrQLenPdf::24                       0                       # What write queue length does an incoming req see
system.mem_ctrl.wrQLenPdf::25                       0                       # What write queue length does an incoming req see
system.mem_ctrl.wrQLenPdf::26                       0                       # What write queue length does an incoming req see
system.mem_ctrl.wrQLenPdf::27                       0                       # What write queue length does an incoming req see
system.mem_ctrl.wrQLenPdf::28                       0                       # What write queue length does an incoming req see
system.mem_ctrl.wrQLenPdf::29                       0                       # What write queue length does an incoming req see
system.mem_ctrl.wrQLenPdf::30                       0                       # What write queue length does an incoming req see
system.mem_ctrl.wrQLenPdf::31                       0                       # What write queue length does an incoming req see
system.mem_ctrl.wrQLenPdf::32                       0                       # What write queue length does an incoming req see
system.mem_ctrl.wrQLenPdf::33                       0                       # What write queue length does an incoming req see
system.mem_ctrl.wrQLenPdf::34                       0                       # What write queue length does an incoming req see
system.mem_ctrl.wrQLenPdf::35                       0                       # What write queue length does an incoming req see
system.mem_ctrl.wrQLenPdf::36                       0                       # What write queue length does an incoming req see
system.mem_ctrl.wrQLenPdf::37                       0                       # What write queue length does an incoming req see
system.mem_ctrl.wrQLenPdf::38                       0                       # What write queue length does an incoming req see
system.mem_ctrl.wrQLenPdf::39                       0                       # What write queue length does an incoming req see
system.mem_ctrl.wrQLenPdf::40                       0                       # What write queue length does an incoming req see
system.mem_ctrl.wrQLenPdf::41                       0                       # What write queue length does an incoming req see
system.mem_ctrl.wrQLenPdf::42                       0                       # What write queue length does an incoming req see
system.mem_ctrl.wrQLenPdf::43                       0                       # What write queue length does an incoming req see
system.mem_ctrl.wrQLenPdf::44                       0                       # What write queue length does an incoming req see
system.mem_ctrl.wrQLenPdf::45                       0                       # What write queue length does an incoming req see
system.mem_ctrl.wrQLenPdf::46                       0                       # What write queue length does an incoming req see
system.mem_ctrl.wrQLenPdf::47                       0                       # What write queue length does an incoming req see
system.mem_ctrl.wrQLenPdf::48                       0                       # What write queue length does an incoming req see
system.mem_ctrl.wrQLenPdf::49                       0                       # What write queue length does an incoming req see
system.mem_ctrl.wrQLenPdf::50                       0                       # What write queue length does an incoming req see
system.mem_ctrl.wrQLenPdf::51                       0                       # What write queue length does an incoming req see
system.mem_ctrl.wrQLenPdf::52                       0                       # What write queue length does an incoming req see
system.mem_ctrl.wrQLenPdf::53                       0                       # What write queue length does an incoming req see
system.mem_ctrl.wrQLenPdf::54                       0                       # What write queue length does an incoming req see
system.mem_ctrl.wrQLenPdf::55                       0                       # What write queue length does an incoming req see
system.mem_ctrl.wrQLenPdf::56                       0                       # What write queue length does an incoming req see
system.mem_ctrl.wrQLenPdf::57                       0                       # What write queue length does an incoming req see
system.mem_ctrl.wrQLenPdf::58                       0                       # What write queue length does an incoming req see
system.mem_ctrl.wrQLenPdf::59                       0                       # What write queue length does an incoming req see
system.mem_ctrl.wrQLenPdf::60                       0                       # What write queue length does an incoming req see
system.mem_ctrl.wrQLenPdf::61                       0                       # What write queue length does an incoming req see
system.mem_ctrl.wrQLenPdf::62                       0                       # What write queue length does an incoming req see
system.mem_ctrl.wrQLenPdf::63                       0                       # What write queue length does an incoming req see
system.mem_ctrl.bytesPerActivate::samples          129                       # Bytes accessed per row activation
system.mem_ctrl.bytesPerActivate::mean     325.953488                       # Bytes accessed per row activation
system.mem_ctrl.bytesPerActivate::gmean    208.027206                       # Bytes accessed per row activation
system.mem_ctrl.bytesPerActivate::stdev    309.367547                       # Bytes accessed per row activation
system.mem_ctrl.bytesPerActivate::0-127            36     27.91%     27.91% # Bytes accessed per row activation
system.mem_ctrl.bytesPerActivate::128-255           33     25.58%     53.49% # Bytes accessed per row activation
system.mem_ctrl.bytesPerActivate::256-383           15     11.63%     65.12% # Bytes accessed per row activation
system.mem_ctrl.bytesPerActivate::384-511           15     11.63%     76.74% # Bytes accessed per row activation
system.mem_ctrl.bytesPerActivate::512-639            6      4.65%     81.40% # Bytes accessed per row activation
system.mem_ctrl.bytesPerActivate::640-767            7      5.43%     86.82% # Bytes accessed per row activation
system.mem_ctrl.bytesPerActivate::768-895            2      1.55%     88.37% # Bytes accessed per row activation
system.mem_ctrl.bytesPerActivate::896-1023            3      2.33%     90.70% # Bytes accessed per row activation
system.mem_ctrl.bytesPerActivate::1024-1151           12      9.30%    100.00% # Bytes accessed per row activation
system.mem_ctrl.bytesPerActivate::total           129                       # Bytes accessed per row activation
system.mem_ctrl.masterReadBytes::.cpu.inst        30144                       # Per-master bytes read from memory
system.mem_ctrl.masterReadBytes::.cpu.data        14656                       # Per-master bytes read from memory
system.mem_ctrl.masterReadRate::.cpu.inst 680175098.154248833656                       # Per-master bytes read from memory rate (Bytes/sec)
system.mem_ctrl.masterReadRate::.cpu.data 330700843.900898039341                       # Per-master bytes read from memory rate (Bytes/sec)
system.mem_ctrl.masterReadAccesses::.cpu.inst          471                       # Per-master read serviced memory accesses
system.mem_ctrl.masterReadAccesses::.cpu.data          229                       # Per-master read serviced memory accesses
system.mem_ctrl.masterReadTotalLat::.cpu.inst     14437250                       # Per-master read total memory access latency
system.mem_ctrl.masterReadTotalLat::.cpu.data      7671000                       # Per-master read total memory access latency
system.mem_ctrl.masterReadAvgLat::.cpu.inst     30652.34                       # Per-master read average memory access latency
system.mem_ctrl.masterReadAvgLat::.cpu.data     33497.82                       # Per-master read average memory access latency
system.mem_ctrl.totQLat                       8983250                       # Total ticks spent queuing
system.mem_ctrl.totMemAccLat                 22108250                       # Total ticks spent from burst creation until serviced by the DRAM
system.mem_ctrl.totBusLat                     3500000                       # Total ticks spent in databus transfers
system.mem_ctrl.avgQLat                      12833.21                       # Average queueing delay per DRAM burst
system.mem_ctrl.avgBusLat                     5000.00                       # Average bus latency per DRAM burst
system.mem_ctrl.avgMemAccLat                 31583.21                       # Average memory access latency per DRAM burst
system.mem_ctrl.avgRdBW                       1010.88                       # Average DRAM read bandwidth in MiByte/s
system.mem_ctrl.avgWrBW                          0.00                       # Average achieved write bandwidth in MiByte/s
system.mem_ctrl.avgRdBWSys                    1010.88                       # Average system read bandwidth in MiByte/s
system.mem_ctrl.avgWrBWSys                       0.00                       # Average system write bandwidth in MiByte/s
system.mem_ctrl.peakBW                       12800.00                       # Theoretical peak bandwidth in MiByte/s
system.mem_ctrl.busUtil                          7.90                       # Data bus utilization in percentage
system.mem_ctrl.busUtilRead                      7.90                       # Data bus utilization in percentage for reads
system.mem_ctrl.busUtilWrite                     0.00                       # Data bus utilization in percentage for writes
system.mem_ctrl.avgRdQLen                        1.51                       # Average read queue length when enqueuing
system.mem_ctrl.avgWrQLen                        0.00                       # Average write queue length when enqueuing
system.mem_ctrl.readRowHits                       560                       # Number of row buffer hits during reads
system.mem_ctrl.writeRowHits                        0                       # Number of row buffer hits during writes
system.mem_ctrl.readRowHitRate                  80.00                       # Row buffer hit rate for reads
system.mem_ctrl.writeRowHitRate                   nan                       # Row buffer hit rate for writes
system.mem_ctrl.avgGap                       63192.14                       # Average gap between requests
system.mem_ctrl.pageHitRate                     80.00                       # Row buffer hit rate, read and write combined
system.mem_ctrl_0.actEnergy                    349860                       # Energy for activate commands per rank (pJ)
system.mem_ctrl_0.preEnergy                    170775                       # Energy for precharge commands per rank (pJ)
system.mem_ctrl_0.readEnergy                  2084880                       # Energy for read commands per rank (pJ)
system.mem_ctrl_0.writeEnergy                       0                       # Energy for write commands per rank (pJ)
system.mem_ctrl_0.refreshEnergy          3073200.000000                       # Energy for refresh commands per rank (pJ)
system.mem_ctrl_0.actBackEnergy               4119390                       # Energy for active background per rank (pJ)
system.mem_ctrl_0.preBackEnergy                 73920                       # Energy for precharge background per rank (pJ)
system.mem_ctrl_0.actPowerDownEnergy         15046290                       # Energy for active power-down per rank (pJ)
system.mem_ctrl_0.prePowerDownEnergy           804960                       # Energy for precharge power-down per rank (pJ)
system.mem_ctrl_0.selfRefreshEnergy                 0                       # Energy for self refresh per rank (pJ)
system.mem_ctrl_0.totalEnergy                25723275                       # Total energy per rank (pJ)
system.mem_ctrl_0.averagePower             580.424997                       # Core power per rank (mW)
system.mem_ctrl_0.totalIdleTime              35056000                       # Total Idle time Per DRAM Rank
system.mem_ctrl_0.memoryStateTime::IDLE         42500                       # Time in different power states
system.mem_ctrl_0.memoryStateTime::REF        1300000                       # Time in different power states
system.mem_ctrl_0.memoryStateTime::SREF             0                       # Time in different power states
system.mem_ctrl_0.memoryStateTime::PRE_PDN      2095250                       # Time in different power states
system.mem_ctrl_0.memoryStateTime::ACT        7879250                       # Time in different power states
system.mem_ctrl_0.memoryStateTime::ACT_PDN     33001000                       # Time in different power states
system.mem_ctrl_1.actEnergy                    649740                       # Energy for activate commands per rank (pJ)
system.mem_ctrl_1.preEnergy                    318780                       # Energy for precharge commands per rank (pJ)
system.mem_ctrl_1.readEnergy                  2913120                       # Energy for read commands per rank (pJ)
system.mem_ctrl_1.writeEnergy                       0                       # Energy for write commands per rank (pJ)
system.mem_ctrl_1.refreshEnergy          3073200.000000                       # Energy for refresh commands per rank (pJ)
system.mem_ctrl_1.actBackEnergy               5100360                       # Energy for active background per rank (pJ)
system.mem_ctrl_1.preBackEnergy                121440                       # Energy for precharge background per rank (pJ)
system.mem_ctrl_1.actPowerDownEnergy         14203830                       # Energy for active power-down per rank (pJ)
system.mem_ctrl_1.prePowerDownEnergy           640800                       # Energy for precharge power-down per rank (pJ)
system.mem_ctrl_1.selfRefreshEnergy                 0                       # Energy for self refresh per rank (pJ)
system.mem_ctrl_1.totalEnergy                27021270                       # Total energy per rank (pJ)
system.mem_ctrl_1.averagePower             609.713209                       # Core power per rank (mW)
system.mem_ctrl_1.totalIdleTime              32570500                       # Total Idle time Per DRAM Rank
system.mem_ctrl_1.memoryStateTime::IDLE        136500                       # Time in different power states
system.mem_ctrl_1.memoryStateTime::REF        1300000                       # Time in different power states
system.mem_ctrl_1.memoryStateTime::SREF             0                       # Time in different power states
system.mem_ctrl_1.memoryStateTime::PRE_PDN      1668000                       # Time in different power states
system.mem_ctrl_1.memoryStateTime::ACT       10067250                       # Time in different power states
system.mem_ctrl_1.memoryStateTime::ACT_PDN     31146250                       # Time in different power states
system.pwrStateResidencyTicks::UNDEFINED     44318000                       # Cumulative time (in ticks) in various power states
system.cpu.branchPred.lookups                    4542                       # Number of BP lookups
system.cpu.branchPred.condPredicted              4542                       # Number of conditional branches predicted
system.cpu.branchPred.condIncorrect               838                       # Number of conditional branches incorrect
system.cpu.branchPred.BTBLookups                 4078                       # Number of BTB lookups
system.cpu.branchPred.BTBHits                       0                       # Number of BTB hits
system.cpu.branchPred.BTBCorrect                    0                       # Number of correct BTB predictions (this stat may not work properly.
system.cpu.branchPred.BTBHitPct              0.000000                       # BTB Hit Percentage
system.cpu.branchPred.usedRAS                     332                       # Number of times the RAS was used to get a target.
system.cpu.branchPred.RASInCorrect                137                       # Number of incorrect RAS predictions.
system.cpu.branchPred.indirectLookups            4078                       # Number of indirect predictor lookups.
system.cpu.branchPred.indirectHits                517                       # Number of indirect target hits.
system.cpu.branchPred.indirectMisses             3561                       # Number of indirect misses.
system.cpu.branchPredindirectMispredicted          652                       # Number of mispredicted indirect branches.
system.cpu.dtb.walker.pwrStateResidencyTicks::UNDEFINED     44318000                       # Cumulative time (in ticks) in various power states
system.cpu.dtb.rdAccesses                        2814                       # TLB accesses on read requests
system.cpu.dtb.wrAccesses                        2056                       # TLB accesses on write requests
system.cpu.dtb.rdMisses                            80                       # TLB misses on read requests
system.cpu.dtb.wrMisses                            33                       # TLB misses on write requests
system.cpu.apic_clk_domain.clock                 8000                       # Clock period in ticks
system.cpu.interrupts.pwrStateResidencyTicks::UNDEFINED     44318000                       # Cumulative time (in ticks) in various power states
system.cpu.itb.walker.pwrStateResidencyTicks::UNDEFINED     44318000                       # Cumulative time (in ticks) in various power states
system.cpu.itb.rdAccesses                           0                       # TLB accesses on read requests
system.cpu.itb.wrAccesses                        2929                       # TLB accesses on write requests
system.cpu.itb.rdMisses                             0                       # TLB misses on read requests
system.cpu.itb.wrMisses                           135                       # TLB misses on write requests
system.cpu.workload.numSyscalls                    12                       # Number of system calls
system.cpu.pwrStateResidencyTicks::ON        44318000                       # Cumulative time (in ticks) in various power states
system.cpu.numCycles                            88637                       # number of cpu cycles simulated
system.cpu.numWorkItemsStarted                      0                       # number of work items this cpu started
system.cpu.numWorkItemsCompleted                    0                       # number of work items this cpu completed
system.cpu.fetch.icacheStallCycles              30243                       # Number of cycles fetch is stalled on an Icache miss
system.cpu.fetch.Insts                          20640                       # Number of instructions fetch has processed
system.cpu.fetch.Branches                        4542                       # Number of branches that fetch encountered
system.cpu.fetch.predictedBranches                849                       # Number of branches that fetch has predicted taken
system.cpu.fetch.Cycles                         33267                       # Number of cycles fetch has run and was not squashing or blocked
system.cpu.fetch.SquashCycles                    1814                       # Number of cycles fetch has spent squashing
system.cpu.fetch.MiscStallCycles                   68                       # Number of cycles fetch has spent waiting on interrupts, or bad addresses, or out of MSHRs
system.cpu.fetch.PendingTrapStallCycles           847                       # Number of stall cycles due to pending traps
system.cpu.fetch.PendingQuiesceStallCycles           18                       # Number of stall cycles due to pending quiesce instructions
system.cpu.fetch.CacheLines                      2836                       # Number of cache lines fetched
system.cpu.fetch.IcacheSquashes                   277                       # Number of outstanding Icache misses that were squashed
system.cpu.fetch.rateDist::samples              65350                       # Number of instructions fetched each cycle (Total)
system.cpu.fetch.rateDist::mean              0.624912                       # Number of instructions fetched each cycle (Total)
system.cpu.fetch.rateDist::stdev             0.918722                       # Number of instructions fetched each cycle (Total)
system.cpu.fetch.rateDist::underflows               0      0.00%      0.00% # Number of instructions fetched each cycle (Total)
system.cpu.fetch.rateDist::0                    44432     67.99%     67.99% # Number of instructions fetched each cycle (Total)
system.cpu.fetch.rateDist::1                      998      1.53%     69.52% # Number of instructions fetched each cycle (Total)
system.cpu.fetch.rateDist::2                    19920     30.48%    100.00% # Number of instructions fetched each cycle (Total)
system.cpu.fetch.rateDist::overflows                0      0.00%    100.00% # Number of instructions fetched each cycle (Total)
system.cpu.fetch.rateDist::min_value                0                       # Number of instructions fetched each cycle (Total)
system.cpu.fetch.rateDist::max_value                2                       # Number of instructions fetched each cycle (Total)
system.cpu.fetch.rateDist::total                65350                       # Number of instructions fetched each cycle (Total)
system.cpu.fetch.branchRate                  0.051243                       # Number of branch fetches per cycle
system.cpu.fetch.rate                        0.232860                       # Number of inst fetches per cycle
system.cpu.decode.IdleCycles                    29968                       # Number of cycles decode is idle
system.cpu.decode.BlockedCycles                 15120                       # Number of cycles decode is blocked
system.cpu.decode.RunCycles                     18922                       # Number of cycles decode is running
system.cpu.decode.UnblockCycles                   433                       # Number of cycles decode is unblocking
system.cpu.decode.SquashCycles                    907                       # Number of cycles decode is squashing
system.cpu.decode.DecodedInsts                  35986                       # Number of instructions handled by decode
system.cpu.decode.SquashedInsts                  1880                       # Number of squashed instructions handled by decode
system.cpu.rename.SquashCycles                    907                       # Number of cycles rename is squashing
system.cpu.rename.IdleCycles                    31806                       # Number of cycles rename is idle
system.cpu.rename.BlockCycles                    5278                       # Number of cycles rename is blocking
system.cpu.rename.serializeStallCycles           1473                       # count of cycles rename stalled for serializing inst
system.cpu.rename.RunCycles                     17488                       # Number of cycles rename is running
system.cpu.rename.UnblockCycles                  8398                       # Number of cycles rename is unblocking
system.cpu.rename.RenamedInsts                  33793                       # Number of instructions processed by rename
system.cpu.rename.SquashedInsts                   934                       # Number of squashed instructions processed by rename
system.cpu.rename.ROBFullEvents                    40                       # Number of times rename has blocked due to ROB full
system.cpu.rename.IQFullEvents                     56                       # Number of times rename has blocked due to IQ full
system.cpu.rename.SQFullEvents                   8075                       # Number of times rename has blocked due to SQ full
system.cpu.rename.FullRegisterEvents               10                       # Number of times there has been no free registers
system.cpu.rename.RenamedOperands               36659                       # Number of destination operands rename has renamed
system.cpu.rename.RenameLookups                 83432                       # Number of register rename lookups that rename has made
system.cpu.rename.int_rename_lookups            46796                       # Number of integer rename lookups
system.cpu.rename.fp_rename_lookups              3883                       # Number of floating rename lookups
system.cpu.rename.CommittedMaps                 21624                       # Number of HB maps that are committed
system.cpu.rename.UndoneMaps                    15035                       # Number of HB maps that are undone due to squashing
system.cpu.rename.serializingInsts                 28                       # count of serializing insts renamed
system.cpu.rename.tempSerializingInsts             25                       # count of temporary serializing insts renamed
system.cpu.rename.skidInsts                       881                       # count of insts added to the skid buffer
system.cpu.memDep0.insertedLoads                 3436                       # Number of loads inserted to the mem dependence unit.
system.cpu.memDep0.insertedStores                2632                       # Number of stores inserted to the mem dependence unit.
system.cpu.memDep0.conflictingLoads                19                       # Number of conflicting loads.
system.cpu.memDep0.conflictingStores               39                       # Number of conflicting stores.
system.cpu.iq.iqInstsAdded                      31548                       # Number of instructions added to the IQ (excludes non-spec)
system.cpu.iq.iqNonSpecInstsAdded                  80                       # Number of non-speculative instructions added to the IQ
system.cpu.iq.iqInstsIssued                     28172                       # Number of instructions issued
system.cpu.iq.iqSquashedInstsIssued               506                       # Number of squashed instructions issued
system.cpu.iq.iqSquashedInstsExamined           11606                       # Number of squashed instructions iterated over during squash; mainly for profiling
system.cpu.iq.iqSquashedOperandsExamined        14749                       # Number of squashed operands that are examined and possibly removed from graph
system.cpu.iq.iqSquashedNonSpecRemoved             68                       # Number of squashed non-spec instructions that were removed
system.cpu.iq.issued_per_cycle::samples         65350                       # Number of insts issued each cycle
system.cpu.iq.issued_per_cycle::mean         0.431094                       # Number of insts issued each cycle
system.cpu.iq.issued_per_cycle::stdev        0.769481                       # Number of insts issued each cycle
system.cpu.iq.issued_per_cycle::underflows            0      0.00%      0.00% # Number of insts issued each cycle
system.cpu.iq.issued_per_cycle::0               48511     74.23%     74.23% # Number of insts issued each cycle
system.cpu.iq.issued_per_cycle::1                5506      8.43%     82.66% # Number of insts issued each cycle
system.cpu.iq.issued_per_cycle::2               11333     17.34%    100.00% # Number of insts issued each cycle
system.cpu.iq.issued_per_cycle::overflows            0      0.00%    100.00% # Number of insts issued each cycle
system.cpu.iq.issued_per_cycle::min_value            0                       # Number of insts issued each cycle
system.cpu.iq.issued_per_cycle::max_value            2                       # Number of insts issued each cycle
system.cpu.iq.issued_per_cycle::total           65350                       # Number of insts issued each cycle
system.cpu.iq.fu_full::No_OpClass                   0      0.00%      0.00% # attempts to use FU when none available
system.cpu.iq.fu_full::IntAlu                       0      0.00%      0.00% # attempts to use FU when none available
system.cpu.iq.fu_full::IntMult                      0      0.00%      0.00% # attempts to use FU when none available
system.cpu.iq.fu_full::IntDiv                       0      0.00%      0.00% # attempts to use FU when none available
system.cpu.iq.fu_full::FloatAdd                     0      0.00%      0.00% # attempts to use FU when none available
system.cpu.iq.fu_full::FloatCmp                     0      0.00%      0.00% # attempts to use FU when none available
system.cpu.iq.fu_full::FloatCvt                     0      0.00%      0.00% # attempts to use FU when none available
system.cpu.iq.fu_full::FloatMult                    0      0.00%      0.00% # attempts to use FU when none available
system.cpu.iq.fu_full::FloatMultAcc                 0      0.00%      0.00% # attempts to use FU when none available
system.cpu.iq.fu_full::FloatDiv                     0      0.00%      0.00% # attempts to use FU when none available
system.cpu.iq.fu_full::FloatMisc                    0      0.00%      0.00% # attempts to use FU when none available
system.cpu.iq.fu_full::FloatSqrt                    0      0.00%      0.00% # attempts to use FU when none available
system.cpu.iq.fu_full::SimdAdd                    250     25.43%     25.43% # attempts to use FU when none available
system.cpu.iq.fu_full::SimdAddAcc                   0      0.00%     25.43% # attempts to use FU when none available
system.cpu.iq.fu_full::SimdAlu                     60      6.10%     31.54% # attempts to use FU when none available
system.cpu.iq.fu_full::SimdCmp                      0      0.00%     31.54% # attempts to use FU when none available
system.cpu.iq.fu_full::SimdCvt                     19      1.93%     33.47% # attempts to use FU when none available
system.cpu.iq.fu_full::SimdMisc                   120     12.21%     45.68% # attempts to use FU when none available
system.cpu.iq.fu_full::SimdMult                     0      0.00%     45.68% # attempts to use FU when none available
system.cpu.iq.fu_full::SimdMultAcc                  0      0.00%     45.68% # attempts to use FU when none available
system.cpu.iq.fu_full::SimdShift                  124     12.61%     58.29% # attempts to use FU when none available
system.cpu.iq.fu_full::SimdShiftAcc                 0      0.00%     58.29% # attempts to use FU when none available
system.cpu.iq.fu_full::SimdSqrt                     0      0.00%     58.29% # attempts to use FU when none available
system.cpu.iq.fu_full::SimdFloatAdd                 0      0.00%     58.29% # attempts to use FU when none available
system.cpu.iq.fu_full::SimdFloatAlu                 0      0.00%     58.29% # attempts to use FU when none available
system.cpu.iq.fu_full::SimdFloatCmp                 0      0.00%     58.29% # attempts to use FU when none available
system.cpu.iq.fu_full::SimdFloatCvt                 0      0.00%     58.29% # attempts to use FU when none available
system.cpu.iq.fu_full::SimdFloatDiv                 0      0.00%     58.29% # attempts to use FU when none available
system.cpu.iq.fu_full::SimdFloatMisc                0      0.00%     58.29% # attempts to use FU when none available
system.cpu.iq.fu_full::SimdFloatMult                0      0.00%     58.29% # attempts to use FU when none available
system.cpu.iq.fu_full::SimdFloatMultAcc             0      0.00%     58.29% # attempts to use FU when none available
system.cpu.iq.fu_full::SimdFloatSqrt                0      0.00%     58.29% # attempts to use FU when none available
system.cpu.iq.fu_full::SimdAes                      0      0.00%     58.29% # attempts to use FU when none available
system.cpu.iq.fu_full::SimdAesMix                   0      0.00%     58.29% # attempts to use FU when none available
system.cpu.iq.fu_full::SimdSha1Hash                 0      0.00%     58.29% # attempts to use FU when none available
system.cpu.iq.fu_full::SimdSha1Hash2                0      0.00%     58.29% # attempts to use FU when none available
system.cpu.iq.fu_full::SimdSha256Hash               0      0.00%     58.29% # attempts to use FU when none available
system.cpu.iq.fu_full::SimdSha256Hash2              0      0.00%     58.29% # attempts to use FU when none available
system.cpu.iq.fu_full::SimdShaSigma2                0      0.00%     58.29% # attempts to use FU when none available
system.cpu.iq.fu_full::SimdShaSigma3                0      0.00%     58.29% # attempts to use FU when none available
system.cpu.iq.fu_full::MemRead                    284     28.89%     87.18% # attempts to use FU when none available
system.cpu.iq.fu_full::MemWrite                   126     12.82%    100.00% # attempts to use FU when none available
system.cpu.iq.fu_full::FloatMemRead                 0      0.00%    100.00% # attempts to use FU when none available
system.cpu.iq.fu_full::FloatMemWrite                0      0.00%    100.00% # attempts to use FU when none available
system.cpu.iq.fu_full::IprAccess                    0      0.00%    100.00% # attempts to use FU when none available
system.cpu.iq.fu_full::InstPrefetch                 0      0.00%    100.00% # attempts to use FU when none available
system.cpu.iq.FU_type_0::No_OpClass               320      1.14%      1.14% # Type of FU issued
system.cpu.iq.FU_type_0::IntAlu                 21572     76.57%     77.71% # Type of FU issued
system.cpu.iq.FU_type_0::IntMult                    4      0.01%     77.72% # Type of FU issued
system.cpu.iq.FU_type_0::IntDiv                    24      0.09%     77.81% # Type of FU issued
system.cpu.iq.FU_type_0::FloatAdd                  10      0.04%     77.84% # Type of FU issued
system.cpu.iq.FU_type_0::FloatCmp                   0      0.00%     77.84% # Type of FU issued
system.cpu.iq.FU_type_0::FloatCvt                   0      0.00%     77.84% # Type of FU issued
system.cpu.iq.FU_type_0::FloatMult                  0      0.00%     77.84% # Type of FU issued
system.cpu.iq.FU_type_0::FloatMultAcc               0      0.00%     77.84% # Type of FU issued
system.cpu.iq.FU_type_0::FloatDiv                   0      0.00%     77.84% # Type of FU issued
system.cpu.iq.FU_type_0::FloatMisc                  0      0.00%     77.84% # Type of FU issued
system.cpu.iq.FU_type_0::FloatSqrt                  0      0.00%     77.84% # Type of FU issued
system.cpu.iq.FU_type_0::SimdAdd                  375      1.33%     79.17% # Type of FU issued
system.cpu.iq.FU_type_0::SimdAddAcc                 0      0.00%     79.17% # Type of FU issued
system.cpu.iq.FU_type_0::SimdAlu                   78      0.28%     79.45% # Type of FU issued
system.cpu.iq.FU_type_0::SimdCmp                    0      0.00%     79.45% # Type of FU issued
system.cpu.iq.FU_type_0::SimdCvt                  118      0.42%     79.87% # Type of FU issued
system.cpu.iq.FU_type_0::SimdMisc                 223      0.79%     80.66% # Type of FU issued
system.cpu.iq.FU_type_0::SimdMult                   0      0.00%     80.66% # Type of FU issued
system.cpu.iq.FU_type_0::SimdMultAcc                0      0.00%     80.66% # Type of FU issued
system.cpu.iq.FU_type_0::SimdShift                186      0.66%     81.32% # Type of FU issued
system.cpu.iq.FU_type_0::SimdShiftAcc               0      0.00%     81.32% # Type of FU issued
system.cpu.iq.FU_type_0::SimdSqrt                   0      0.00%     81.32% # Type of FU issued
system.cpu.iq.FU_type_0::SimdFloatAdd               0      0.00%     81.32% # Type of FU issued
system.cpu.iq.FU_type_0::SimdFloatAlu               0      0.00%     81.32% # Type of FU issued
system.cpu.iq.FU_type_0::SimdFloatCmp               0      0.00%     81.32% # Type of FU issued
system.cpu.iq.FU_type_0::SimdFloatCvt               0      0.00%     81.32% # Type of FU issued
system.cpu.iq.FU_type_0::SimdFloatDiv               0      0.00%     81.32% # Type of FU issued
system.cpu.iq.FU_type_0::SimdFloatMisc              0      0.00%     81.32% # Type of FU issued
system.cpu.iq.FU_type_0::SimdFloatMult              0      0.00%     81.32% # Type of FU issued
system.cpu.iq.FU_type_0::SimdFloatMultAcc            0      0.00%     81.32% # Type of FU issued
system.cpu.iq.FU_type_0::SimdFloatSqrt              0      0.00%     81.32% # Type of FU issued
system.cpu.iq.FU_type_0::SimdAes                    0      0.00%     81.32% # Type of FU issued
system.cpu.iq.FU_type_0::SimdAesMix                 0      0.00%     81.32% # Type of FU issued
system.cpu.iq.FU_type_0::SimdSha1Hash               0      0.00%     81.32% # Type of FU issued
system.cpu.iq.FU_type_0::SimdSha1Hash2              0      0.00%     81.32% # Type of FU issued
system.cpu.iq.FU_type_0::SimdSha256Hash             0      0.00%     81.32% # Type of FU issued
system.cpu.iq.FU_type_0::SimdSha256Hash2            0      0.00%     81.32% # Type of FU issued
system.cpu.iq.FU_type_0::SimdShaSigma2              0      0.00%     81.32% # Type of FU issued
system.cpu.iq.FU_type_0::SimdShaSigma3              0      0.00%     81.32% # Type of FU issued
system.cpu.iq.FU_type_0::MemRead                 2981     10.58%     91.90% # Type of FU issued
system.cpu.iq.FU_type_0::MemWrite                1781      6.32%     98.23% # Type of FU issued
system.cpu.iq.FU_type_0::FloatMemRead              72      0.26%     98.48% # Type of FU issued
system.cpu.iq.FU_type_0::FloatMemWrite            428      1.52%    100.00% # Type of FU issued
system.cpu.iq.FU_type_0::IprAccess                  0      0.00%    100.00% # Type of FU issued
system.cpu.iq.FU_type_0::InstPrefetch               0      0.00%    100.00% # Type of FU issued
system.cpu.iq.FU_type_0::total                  28172                       # Type of FU issued
system.cpu.iq.rate                           0.317836                       # Inst issue rate
system.cpu.iq.fu_busy_cnt                         983                       # FU busy when requested
system.cpu.iq.fu_busy_rate                   0.034893                       # FU busy rate (busy events/executed inst)
system.cpu.iq.int_inst_queue_reads             118596                       # Number of integer instruction queue reads
system.cpu.iq.int_inst_queue_writes             41173                       # Number of integer instruction queue writes
system.cpu.iq.int_inst_queue_wakeup_accesses        23616                       # Number of integer instruction queue wakeup accesses
system.cpu.iq.fp_inst_queue_reads                4587                       # Number of floating instruction queue reads
system.cpu.iq.fp_inst_queue_writes               2065                       # Number of floating instruction queue writes
system.cpu.iq.fp_inst_queue_wakeup_accesses         1991                       # Number of floating instruction queue wakeup accesses
system.cpu.iq.vec_inst_queue_reads                  0                       # Number of vector instruction queue reads
system.cpu.iq.vec_inst_queue_writes                 0                       # Number of vector instruction queue writes
system.cpu.iq.vec_inst_queue_wakeup_accesses            0                       # Number of vector instruction queue wakeup accesses
system.cpu.iq.int_alu_accesses                  26256                       # Number of integer alu accesses
system.cpu.iq.fp_alu_accesses                    2579                       # Number of floating point alu accesses
system.cpu.iq.vec_alu_accesses                      0                       # Number of vector alu accesses
system.cpu.iew.lsq.thread0.forwLoads               39                       # Number of loads that had data forwarded from stores
system.cpu.iew.lsq.thread0.invAddrLoads             0                       # Number of loads ignored due to an invalid address
system.cpu.iew.lsq.thread0.squashedLoads         1343                       # Number of loads squashed
system.cpu.iew.lsq.thread0.ignoredResponses            2                       # Number of memory responses ignored because the instruction is squashed
system.cpu.iew.lsq.thread0.memOrderViolation            4                       # Number of memory ordering violations
system.cpu.iew.lsq.thread0.squashedStores          859                       # Number of stores squashed
system.cpu.iew.lsq.thread0.invAddrSwpfs             0                       # Number of software prefetches ignored due to an invalid address
system.cpu.iew.lsq.thread0.blockedLoads             0                       # Number of blocked loads due to partial load-store forwarding
system.cpu.iew.lsq.thread0.rescheduledLoads            1                       # Number of loads that were rescheduled
system.cpu.iew.lsq.thread0.cacheBlocked            14                       # Number of times an access to memory failed due to the cache being blocked
system.cpu.iew.iewIdleCycles                        0                       # Number of cycles IEW is idle
system.cpu.iew.iewSquashCycles                    907                       # Number of cycles IEW is squashing
system.cpu.iew.iewBlockCycles                    1245                       # Number of cycles IEW is blocking
system.cpu.iew.iewUnblockCycles                  2140                       # Number of cycles IEW is unblocking
system.cpu.iew.iewDispatchedInsts               31628                       # Number of instructions dispatched to IQ
system.cpu.iew.iewDispSquashedInsts               748                       # Number of squashed instructions skipped by dispatch
system.cpu.iew.iewDispLoadInsts                  3436                       # Number of dispatched load instructions
system.cpu.iew.iewDispStoreInsts                 2632                       # Number of dispatched store instructions
system.cpu.iew.iewDispNonSpecInsts                 39                       # Number of dispatched non-speculative instructions
system.cpu.iew.iewIQFullEvents                     15                       # Number of times the IQ has become full, causing a stall
system.cpu.iew.iewLSQFullEvents                  2110                       # Number of times the LSQ has become full, causing a stall
system.cpu.iew.memOrderViolationEvents              4                       # Number of memory order violations
system.cpu.iew.predictedTakenIncorrect            171                       # Number of branches that were predicted taken incorrectly
system.cpu.iew.predictedNotTakenIncorrect          862                       # Number of branches that were predicted not taken incorrectly
system.cpu.iew.branchMispredicts                 1033                       # Number of branch mispredicts detected at execute
system.cpu.iew.iewExecutedInsts                 26159                       # Number of executed instructions
system.cpu.iew.iewExecLoadInsts                  2810                       # Number of load instructions executed
system.cpu.iew.iewExecSquashedInsts              2013                       # Number of squashed instructions skipped in execute
system.cpu.iew.exec_swp                             0                       # number of swp insts executed
system.cpu.iew.exec_nop                             0                       # number of nop insts executed
system.cpu.iew.exec_refs                         4866                       # number of memory reference insts executed
system.cpu.iew.exec_branches                     2529                       # Number of branches executed
system.cpu.iew.exec_stores                       2056                       # Number of stores executed
system.cpu.iew.exec_rate                     0.295125                       # Inst execution rate
system.cpu.iew.wb_sent                          25891                       # cumulative count of insts sent to commit
system.cpu.iew.wb_count                         25607                       # cumulative count of insts written-back
system.cpu.iew.wb_producers                     17690                       # num instructions producing a value
system.cpu.iew.wb_consumers                     27089                       # num instructions consuming a value
system.cpu.iew.wb_rate                       0.288897                       # insts written-back per cycle
system.cpu.iew.wb_fanout                     0.653033                       # average fanout of values written-back
system.cpu.commit.commitSquashedInsts           10454                       # The number of squashed insts skipped by commit
system.cpu.commit.commitNonSpecStalls              12                       # The number of times commit has been forced to stall to communicate backwards
system.cpu.commit.branchMispredicts               903                       # The number of times a branch was mispredicted
system.cpu.commit.committed_per_cycle::samples        64174                       # Number of insts commited each cycle
system.cpu.commit.committed_per_cycle::mean     0.311980                       # Number of insts commited each cycle
system.cpu.commit.committed_per_cycle::stdev     0.684969                       # Number of insts commited each cycle
system.cpu.commit.committed_per_cycle::underflows            0      0.00%      0.00% # Number of insts commited each cycle
system.cpu.commit.committed_per_cycle::0        52320     81.53%     81.53% # Number of insts commited each cycle
system.cpu.commit.committed_per_cycle::1         3687      5.75%     87.27% # Number of insts commited each cycle
system.cpu.commit.committed_per_cycle::2         8167     12.73%    100.00% # Number of insts commited each cycle
system.cpu.commit.committed_per_cycle::overflows            0      0.00%    100.00% # Number of insts commited each cycle
system.cpu.commit.committed_per_cycle::min_value            0                       # Number of insts commited each cycle
system.cpu.commit.committed_per_cycle::max_value            2                       # Number of insts commited each cycle
system.cpu.commit.committed_per_cycle::total        64174                       # Number of insts commited each cycle
system.cpu.commit.committedInsts                10088                       # Number of instructions committed
system.cpu.commit.committedOps                  20021                       # Number of ops (including micro ops) committed
system.cpu.commit.swp_count                         0                       # Number of s/w prefetches committed
system.cpu.commit.refs                           3866                       # Number of memory references committed
system.cpu.commit.loads                          2093                       # Number of loads committed
system.cpu.commit.membars                           0                       # Number of memory barriers committed
system.cpu.commit.branches                       2187                       # Number of branches committed
system.cpu.commit.vec_insts                         0                       # Number of committed Vector instructions.
system.cpu.commit.fp_insts                       1975                       # Number of committed floating point instructions.
system.cpu.commit.int_insts                     18480                       # Number of committed integer instructions.
system.cpu.commit.function_calls                  199                       # Number of function calls committed.
system.cpu.commit.op_class_0::No_OpClass          104      0.52%      0.52% # Class of committed instruction
system.cpu.commit.op_class_0::IntAlu            15042     75.13%     75.65% # Class of committed instruction
system.cpu.commit.op_class_0::IntMult               4      0.02%     75.67% # Class of committed instruction
system.cpu.commit.op_class_0::IntDiv               21      0.10%     75.78% # Class of committed instruction
system.cpu.commit.op_class_0::FloatAdd             10      0.05%     75.83% # Class of committed instruction
system.cpu.commit.op_class_0::FloatCmp              0      0.00%     75.83% # Class of committed instruction
system.cpu.commit.op_class_0::FloatCvt              0      0.00%     75.83% # Class of committed instruction
system.cpu.commit.op_class_0::FloatMult             0      0.00%     75.83% # Class of committed instruction
system.cpu.commit.op_class_0::FloatMultAcc            0      0.00%     75.83% # Class of committed instruction
system.cpu.commit.op_class_0::FloatDiv              0      0.00%     75.83% # Class of committed instruction
system.cpu.commit.op_class_0::FloatMisc             0      0.00%     75.83% # Class of committed instruction
system.cpu.commit.op_class_0::FloatSqrt             0      0.00%     75.83% # Class of committed instruction
system.cpu.commit.op_class_0::SimdAdd             374      1.87%     77.69% # Class of committed instruction
system.cpu.commit.op_class_0::SimdAddAcc            0      0.00%     77.69% # Class of committed instruction
system.cpu.commit.op_class_0::SimdAlu              76      0.38%     78.07% # Class of committed instruction
system.cpu.commit.op_class_0::SimdCmp               0      0.00%     78.07% # Class of committed instruction
system.cpu.commit.op_class_0::SimdCvt             116      0.58%     78.65% # Class of committed instruction
system.cpu.commit.op_class_0::SimdMisc            222      1.11%     79.76% # Class of committed instruction
system.cpu.commit.op_class_0::SimdMult              0      0.00%     79.76% # Class of committed instruction
system.cpu.commit.op_class_0::SimdMultAcc            0      0.00%     79.76% # Class of committed instruction
system.cpu.commit.op_class_0::SimdShift           186      0.93%     80.69% # Class of committed instruction
system.cpu.commit.op_class_0::SimdShiftAcc            0      0.00%     80.69% # Class of committed instruction
system.cpu.commit.op_class_0::SimdSqrt              0      0.00%     80.69% # Class of committed instruction
system.cpu.commit.op_class_0::SimdFloatAdd            0      0.00%     80.69% # Class of committed instruction
system.cpu.commit.op_class_0::SimdFloatAlu            0      0.00%     80.69% # Class of committed instruction
system.cpu.commit.op_class_0::SimdFloatCmp            0      0.00%     80.69% # Class of committed instruction
system.cpu.commit.op_class_0::SimdFloatCvt            0      0.00%     80.69% # Class of committed instruction
system.cpu.commit.op_class_0::SimdFloatDiv            0      0.00%     80.69% # Class of committed instruction
system.cpu.commit.op_class_0::SimdFloatMisc            0      0.00%     80.69% # Class of committed instruction
system.cpu.commit.op_class_0::SimdFloatMult            0      0.00%     80.69% # Class of committed instruction
system.cpu.commit.op_class_0::SimdFloatMultAcc            0      0.00%     80.69% # Class of committed instruction
system.cpu.commit.op_class_0::SimdFloatSqrt            0      0.00%     80.69% # Class of committed instruction
system.cpu.commit.op_class_0::SimdAes               0      0.00%     80.69% # Class of committed instruction
system.cpu.commit.op_class_0::SimdAesMix            0      0.00%     80.69% # Class of committed instruction
system.cpu.commit.op_class_0::SimdSha1Hash            0      0.00%     80.69% # Class of committed instruction
system.cpu.commit.op_class_0::SimdSha1Hash2            0      0.00%     80.69% # Class of committed instruction
system.cpu.commit.op_class_0::SimdSha256Hash            0      0.00%     80.69% # Class of committed instruction
system.cpu.commit.op_class_0::SimdSha256Hash2            0      0.00%     80.69% # Class of committed instruction
system.cpu.commit.op_class_0::SimdShaSigma2            0      0.00%     80.69% # Class of committed instruction
system.cpu.commit.op_class_0::SimdShaSigma3            0      0.00%     80.69% # Class of committed instruction
system.cpu.commit.op_class_0::MemRead            2029     10.13%     90.82% # Class of committed instruction
system.cpu.commit.op_class_0::MemWrite           1358      6.78%     97.61% # Class of committed instruction
system.cpu.commit.op_class_0::FloatMemRead           64      0.32%     97.93% # Class of committed instruction
system.cpu.commit.op_class_0::FloatMemWrite          415      2.07%    100.00% # Class of committed instruction
system.cpu.commit.op_class_0::IprAccess             0      0.00%    100.00% # Class of committed instruction
system.cpu.commit.op_class_0::InstPrefetch            0      0.00%    100.00% # Class of committed instruction
system.cpu.commit.op_class_0::total             20021                       # Class of committed instruction
system.cpu.commit.bw_lim_events                  8167                       # number cycles where commit BW limit reached
system.cpu.rob.rob_reads                        86482                       # The number of ROB reads
system.cpu.rob.rob_writes                       62127                       # The number of ROB writes
system.cpu.timesIdled                             283                       # Number of times that the entire CPU went into an idle state and unscheduled itself
system.cpu.idleCycles                           23287                       # Total number of cycles that the CPU has spent unscheduled due to idling
system.cpu.committedInsts                       10088                       # Number of Instructions Simulated
system.cpu.committedOps                         20021                       # Number of Ops (including micro ops) Simulated
system.cpu.cpi                               8.786380                       # CPI: Cycles Per Instruction
system.cpu.cpi_total                         8.786380                       # CPI: Total CPI of All Threads
system.cpu.ipc                               0.113813                       # IPC: Instructions Per Cycle
system.cpu.ipc_total                         0.113813                       # IPC: Total IPC of All Threads
system.cpu.int_regfile_reads                    34157                       # number of integer regfile reads
system.cpu.int_regfile_writes                   19514                       # number of integer regfile writes
system.cpu.fp_regfile_reads                      3832                       # number of floating regfile reads
system.cpu.fp_regfile_writes                     1509                       # number of floating regfile writes
system.cpu.cc_regfile_reads                     12276                       # number of cc regfile reads
system.cpu.cc_regfile_writes                     6899                       # number of cc regfile writes
system.cpu.misc_regfile_reads                   11087                       # number of misc regfile reads
system.cpu.dcache.tags.pwrStateResidencyTicks::UNDEFINED     44318000                       # Cumulative time (in ticks) in various power states
system.cpu.dcache.tags.tagsinuse           136.130367                       # Cycle average of tags in use
system.cpu.dcache.tags.total_refs                4352                       # Total number of references to valid blocks.
system.cpu.dcache.tags.sampled_refs               231                       # Sample count of references to valid blocks.
system.cpu.dcache.tags.avg_refs             18.839827                       # Average number of references to valid blocks.
system.cpu.dcache.tags.warmup_cycle            170000                       # Cycle when the warmup percentage was hit.
system.cpu.dcache.tags.occ_blocks::.cpu.data   136.130367                       # Average occupied blocks per requestor
system.cpu.dcache.tags.occ_percent::.cpu.data     0.265880                       # Average percentage of cache occupancy
system.cpu.dcache.tags.occ_percent::total     0.265880                       # Average percentage of cache occupancy
system.cpu.dcache.tags.occ_task_id_blocks::1024          231                       # Occupied blocks per task id
system.cpu.dcache.tags.age_task_id_blocks_1024::0           27                       # Occupied blocks per task id
system.cpu.dcache.tags.age_task_id_blocks_1024::1          204                       # Occupied blocks per task id
system.cpu.dcache.tags.occ_task_id_percent::1024     0.451172                       # Percentage of cache occupancy per task id
system.cpu.dcache.tags.tag_accesses             35983                       # Number of tag accesses
system.cpu.dcache.tags.data_accesses            35983                       # Number of data accesses
system.cpu.dcache.pwrStateResidencyTicks::UNDEFINED     44318000                       # Cumulative time (in ticks) in various power states
system.cpu.dcache.ReadReq_hits::.cpu.data         2465                       # number of ReadReq hits
system.cpu.dcache.ReadReq_hits::total            2465                       # number of ReadReq hits
system.cpu.dcache.WriteReq_hits::.cpu.data         1656                       # number of WriteReq hits
system.cpu.dcache.WriteReq_hits::total           1656                       # number of WriteReq hits
system.cpu.dcache.demand_hits::.cpu.data         4121                       # number of demand (read+write) hits
system.cpu.dcache.demand_hits::total             4121                       # number of demand (read+write) hits
system.cpu.dcache.overall_hits::.cpu.data         4121                       # number of overall hits
system.cpu.dcache.overall_hits::total            4121                       # number of overall hits
system.cpu.dcache.ReadReq_misses::.cpu.data          231                       # number of ReadReq misses
system.cpu.dcache.ReadReq_misses::total           231                       # number of ReadReq misses
system.cpu.dcache.WriteReq_misses::.cpu.data          117                       # number of WriteReq misses
system.cpu.dcache.WriteReq_misses::total          117                       # number of WriteReq misses
system.cpu.dcache.demand_misses::.cpu.data          348                       # number of demand (read+write) misses
system.cpu.dcache.demand_misses::total            348                       # number of demand (read+write) misses
system.cpu.dcache.overall_misses::.cpu.data          348                       # number of overall misses
system.cpu.dcache.overall_misses::total           348                       # number of overall misses
system.cpu.dcache.ReadReq_miss_latency::.cpu.data     19153000                       # number of ReadReq miss cycles
system.cpu.dcache.ReadReq_miss_latency::total     19153000                       # number of ReadReq miss cycles
system.cpu.dcache.WriteReq_miss_latency::.cpu.data      9529999                       # number of WriteReq miss cycles
system.cpu.dcache.WriteReq_miss_latency::total      9529999                       # number of WriteReq miss cycles
system.cpu.dcache.demand_miss_latency::.cpu.data     28682999                       # number of demand (read+write) miss cycles
system.cpu.dcache.demand_miss_latency::total     28682999                       # number of demand (read+write) miss cycles
system.cpu.dcache.overall_miss_latency::.cpu.data     28682999                       # number of overall miss cycles
system.cpu.dcache.overall_miss_latency::total     28682999                       # number of overall miss cycles
system.cpu.dcache.ReadReq_accesses::.cpu.data         2696                       # number of ReadReq accesses(hits+misses)
system.cpu.dcache.ReadReq_accesses::total         2696                       # number of ReadReq accesses(hits+misses)
system.cpu.dcache.WriteReq_accesses::.cpu.data         1773                       # number of WriteReq accesses(hits+misses)
system.cpu.dcache.WriteReq_accesses::total         1773                       # number of WriteReq accesses(hits+misses)
system.cpu.dcache.demand_accesses::.cpu.data         4469                       # number of demand (read+write) accesses
system.cpu.dcache.demand_accesses::total         4469                       # number of demand (read+write) accesses
system.cpu.dcache.overall_accesses::.cpu.data         4469                       # number of overall (read+write) accesses
system.cpu.dcache.overall_accesses::total         4469                       # number of overall (read+write) accesses
system.cpu.dcache.ReadReq_miss_rate::.cpu.data     0.085682                       # miss rate for ReadReq accesses
system.cpu.dcache.ReadReq_miss_rate::total     0.085682                       # miss rate for ReadReq accesses
system.cpu.dcache.WriteReq_miss_rate::.cpu.data     0.065990                       # miss rate for WriteReq accesses
system.cpu.dcache.WriteReq_miss_rate::total     0.065990                       # miss rate for WriteReq accesses
system.cpu.dcache.demand_miss_rate::.cpu.data     0.077870                       # miss rate for demand accesses
system.cpu.dcache.demand_miss_rate::total     0.077870                       # miss rate for demand accesses
system.cpu.dcache.overall_miss_rate::.cpu.data     0.077870                       # miss rate for overall accesses
system.cpu.dcache.overall_miss_rate::total     0.077870                       # miss rate for overall accesses
system.cpu.dcache.ReadReq_avg_miss_latency::.cpu.data 82913.419913                       # average ReadReq miss latency
system.cpu.dcache.ReadReq_avg_miss_latency::total 82913.419913                       # average ReadReq miss latency
[...]
system.l3bus.snoop_fanout::overflows                0      0.00%    100.00% # Request fanout histogram
system.l3bus.snoop_fanout::min_value                0                       # Request fanout histogram
system.l3bus.snoop_fanout::max_value                0                       # Request fanout histogram
system.l3bus.snoop_fanout::total                  700                       # Request fanout histogram
system.l3bus.reqLayer0.occupancy               350000                       # Layer occupancy (ticks)
system.l3bus.reqLayer0.utilization                0.8                       # Layer utilization (%)
system.l3bus.respLayer0.occupancy             1750000                       # Layer occupancy (ticks)
system.l3bus.respLayer0.utilization               3.9                       # Layer utilization (%)
system.l3cache.tags.pwrStateResidencyTicks::UNDEFINED     44318000                       # Cumulative time (in ticks) in various power states
system.l3cache.tags.tagsinuse              366.399755                       # Cycle average of tags in use
system.l3cache.tags.total_refs                    700                       # Total number of references to valid blocks.
system.l3cache.tags.sampled_refs                  700                       # Sample count of references to valid blocks.
system.l3cache.tags.avg_refs                        1                       # Average number of references to valid blocks.
system.l3cache.tags.warmup_cycle                76000                       # Cycle when the warmup percentage was hit.
system.l3cache.tags.occ_blocks::.cpu.inst   230.775289                       # Average occupied blocks per requestor
system.l3cache.tags.occ_blocks::.cpu.data   135.624466                       # Average occupied blocks per requestor
system.l3cache.tags.occ_percent::.cpu.inst     0.007043                       # Average percentage of cache occupancy
system.l3cache.tags.occ_percent::.cpu.data     0.004139                       # Average percentage of cache occupancy
system.l3cache.tags.occ_percent::total       0.011182                       # Average percentage of cache occupancy
system.l3cache.tags.occ_task_id_blocks::1024          700                       # Occupied blocks per task id
system.l3cache.tags.age_task_id_blocks_1024::0          139                       # Occupied blocks per task id
system.l3cache.tags.age_task_id_blocks_1024::1          561                       # Occupied blocks per task id
system.l3cache.tags.occ_task_id_percent::1024     0.021362                       # Percentage of cache occupancy per task id
system.l3cache.tags.tag_accesses                11900                       # Number of tag accesses
system.l3cache.tags.data_accesses               11900                       # Number of data accesses
system.l3cache.pwrStateResidencyTicks::UNDEFINED     44318000                       # Cumulative time (in ticks) in various power states
system.l3cache.ReadExReq_misses::.cpu.data          115                       # number of ReadExReq misses
system.l3cache.ReadExReq_misses::total            115                       # number of ReadExReq misses
system.l3cache.ReadSharedReq_misses::.cpu.inst          471                       # number of ReadSharedReq misses
system.l3cache.ReadSharedReq_misses::.cpu.data          114                       # number of ReadSharedReq misses
system.l3cache.ReadSharedReq_misses::total          585                       # number of ReadSharedReq misses
system.l3cache.demand_misses::.cpu.inst           471                       # number of demand (read+write) misses
system.l3cache.demand_misses::.cpu.data           229                       # number of demand (read+write) misses
system.l3cache.demand_misses::total               700                       # number of demand (read+write) misses
system.l3cache.overall_misses::.cpu.inst          471                       # number of overall misses
system.l3cache.overall_misses::.cpu.data          229                       # number of overall misses
system.l3cache.overall_misses::total              700                       # number of overall misses
system.l3cache.ReadExReq_miss_latency::.cpu.data      7891500                       # number of ReadExReq miss cycles
system.l3cache.ReadExReq_miss_latency::total      7891500                       # number of ReadExReq miss cycles
system.l3cache.ReadSharedReq_miss_latency::.cpu.inst     31966000                       # number of ReadSharedReq miss cycles
system.l3cache.ReadSharedReq_miss_latency::.cpu.data      8300500                       # number of ReadSharedReq miss cycles
system.l3cache.ReadSharedReq_miss_latency::total     40266500                       # number of ReadSharedReq miss cycles
system.l3cache.demand_miss_latency::.cpu.inst     31966000                       # number of demand (read+write) miss cycles
system.l3cache.demand_miss_latency::.cpu.data     16192000                       # number of demand (read+write) miss cycles
system.l3cache.demand_miss_latency::total     48158000                       # number of demand (read+write) miss cycles
system.l3cache.overall_miss_latency::.cpu.inst     31966000                       # number of overall miss cycles
system.l3cache.overall_miss_latency::.cpu.data     16192000                       # number of overall miss cycles
system.l3cache.overall_miss_latency::total     48158000                       # number of overall miss cycles
system.l3cache.ReadExReq_accesses::.cpu.data          115                       # number of ReadExReq accesses(hits+misses)
system.l3cache.ReadExReq_accesses::total          115                       # number of ReadExReq accesses(hits+misses)
system.l3cache.ReadSharedReq_accesses::.cpu.inst          471                       # number of ReadSharedReq accesses(hits+misses)
system.l3cache.ReadSharedReq_accesses::.cpu.data          114                       # number of ReadSharedReq accesses(hits+misses)
system.l3cache.ReadSharedReq_accesses::total          585                       # number of ReadSharedReq accesses(hits+misses)
system.l3cache.demand_accesses::.cpu.inst          471                       # number of demand (read+write) accesses
system.l3cache.demand_accesses::.cpu.data          229                       # number of demand (read+write) accesses
system.l3cache.demand_accesses::total             700                       # number of demand (read+write) accesses
system.l3cache.overall_accesses::.cpu.inst          471                       # number of overall (read+write) accesses
system.l3cache.overall_accesses::.cpu.data          229                       # number of overall (read+write) accesses
system.l3cache.overall_accesses::total            700                       # number of overall (read+write) accesses
system.l3cache.ReadExReq_miss_rate::.cpu.data            1                       # miss rate for ReadExReq accesses
system.l3cache.ReadExReq_miss_rate::total            1                       # miss rate for ReadExReq accesses
system.l3cache.ReadSharedReq_miss_rate::.cpu.inst            1                       # miss rate for ReadSharedReq accesses
system.l3cache.ReadSharedReq_miss_rate::.cpu.data            1                       # miss rate for ReadSharedReq accesses
system.l3cache.ReadSharedReq_miss_rate::total            1                       # miss rate for ReadSharedReq accesses
system.l3cache.demand_miss_rate::.cpu.inst            1                       # miss rate for demand accesses
system.l3cache.demand_miss_rate::.cpu.data            1                       # miss rate for demand accesses
system.l3cache.demand_miss_rate::total              1                       # miss rate for demand accesses
system.l3cache.overall_miss_rate::.cpu.inst            1                       # miss rate for overall accesses
system.l3cache.overall_miss_rate::.cpu.data            1                       # miss rate for overall accesses
system.l3cache.overall_miss_rate::total             1                       # miss rate for overall accesses
system.l3cache.ReadExReq_avg_miss_latency::.cpu.data 68621.739130                       # average ReadExReq miss latency
system.l3cache.ReadExReq_avg_miss_latency::total 68621.739130                       # average ReadExReq miss latency
system.l3cache.ReadSharedReq_avg_miss_latency::.cpu.inst 67868.365180                       # average ReadSharedReq miss latency
system.l3cache.ReadSharedReq_avg_miss_latency::.cpu.data 72811.403509                       # average ReadSharedReq miss latency
system.l3cache.ReadSharedReq_avg_miss_latency::total 68831.623932                       # average ReadSharedReq miss latency
system.l3cache.demand_avg_miss_latency::.cpu.inst 67868.365180                       # average overall miss latency
system.l3cache.demand_avg_miss_latency::.cpu.data 70707.423581                       # average overall miss latency
system.l3cache.demand_avg_miss_latency::total 68797.142857                       # average overall miss latency
system.l3cache.overall_avg_miss_latency::.cpu.inst 67868.365180                       # average overall miss latency
system.l3cache.overall_avg_miss_latency::.cpu.data 70707.423581                       # average overall miss latency
system.l3cache.overall_avg_miss_latency::total 68797.142857                       # average overall miss latency
system.l3cache.blocked_cycles::no_mshrs             0                       # number of cycles access was blocked
system.l3cache.blocked_cycles::no_targets            0                       # number of cycles access was blocked
system.l3cache.blocked::no_mshrs                    0                       # number of cycles access was blocked
system.l3cache.blocked::no_targets                  0                       # number of cycles access was blocked
system.l3cache.avg_blocked_cycles::no_mshrs          nan                       # average number of cycles each access was blocked
system.l3cache.avg_blocked_cycles::no_targets          nan                       # average number of cycles each access was blocked
system.l3cache.ReadExReq_mshr_misses::.cpu.data          115                       # number of ReadExReq MSHR misses
system.l3cache.ReadExReq_mshr_misses::total          115                       # number of ReadExReq MSHR misses
system.l3cache.ReadSharedReq_mshr_misses::.cpu.inst          471                       # number of ReadSharedReq MSHR misses
system.l3cache.ReadSharedReq_mshr_misses::.cpu.data          114                       # number of ReadSharedReq MSHR misses
system.l3cache.ReadSharedReq_mshr_misses::total          585                       # number of ReadSharedReq MSHR misses
system.l3cache.demand_mshr_misses::.cpu.inst          471                       # number of demand (read+write) MSHR misses
system.l3cache.demand_mshr_misses::.cpu.data          229                       # number of demand (read+write) MSHR misses
system.l3cache.demand_mshr_misses::total          700                       # number of demand (read+write) MSHR misses
system.l3cache.overall_mshr_misses::.cpu.inst          471                       # number of overall MSHR misses
system.l3cache.overall_mshr_misses::.cpu.data          229                       # number of overall MSHR misses
system.l3cache.overall_mshr_misses::total          700                       # number of overall MSHR misses
system.l3cache.ReadExReq_mshr_miss_latency::.cpu.data      7661500                       # number of ReadExReq MSHR miss cycles
system.l3cache.ReadExReq_mshr_miss_latency::total      7661500                       # number of ReadExReq MSHR miss cycles
system.l3cache.ReadSharedReq_mshr_miss_latency::.cpu.inst     31024000                       # number of ReadSharedReq MSHR miss cycles
system.l3cache.ReadSharedReq_mshr_miss_latency::.cpu.data      8072500                       # number of ReadSharedReq MSHR miss cycles
system.l3cache.ReadSharedReq_mshr_miss_latency::total     39096500                       # number of ReadSharedReq MSHR miss cycles
system.l3cache.demand_mshr_miss_latency::.cpu.inst     31024000                       # number of demand (read+write) MSHR miss cycles
system.l3cache.demand_mshr_miss_latency::.cpu.data     15734000                       # number of demand (read+write) MSHR miss cycles
system.l3cache.demand_mshr_miss_latency::total     46758000                       # number of demand (read+write) MSHR miss cycles
system.l3cache.overall_mshr_miss_latency::.cpu.inst     31024000                       # number of overall MSHR miss cycles
system.l3cache.overall_mshr_miss_latency::.cpu.data     15734000                       # number of overall MSHR miss cycles
system.l3cache.overall_mshr_miss_latency::total     46758000                       # number of overall MSHR miss cycles
system.l3cache.ReadExReq_mshr_miss_rate::.cpu.data            1                       # mshr miss rate for ReadExReq accesses
system.l3cache.ReadExReq_mshr_miss_rate::total            1                       # mshr miss rate for ReadExReq accesses
system.l3cache.ReadSharedReq_mshr_miss_rate::.cpu.inst            1                       # mshr miss rate for ReadSharedReq accesses
system.l3cache.ReadSharedReq_mshr_miss_rate::.cpu.data            1                       # mshr miss rate for ReadSharedReq accesses
system.l3cache.ReadSharedReq_mshr_miss_rate::total            1                       # mshr miss rate for ReadSharedReq accesses
system.l3cache.demand_mshr_miss_rate::.cpu.inst            1                       # mshr miss rate for demand accesses
system.l3cache.demand_mshr_miss_rate::.cpu.data            1                       # mshr miss rate for demand accesses
system.l3cache.demand_mshr_miss_rate::total            1                       # mshr miss rate for demand accesses
system.l3cache.overall_mshr_miss_rate::.cpu.inst            1                       # mshr miss rate for overall accesses
system.l3cache.overall_mshr_miss_rate::.cpu.data            1                       # mshr miss rate for overall accesses
system.l3cache.overall_mshr_miss_rate::total            1                       # mshr miss rate for overall accesses
system.l3cache.ReadExReq_avg_mshr_miss_latency::.cpu.data 66621.739130                       # average ReadExReq mshr miss latency
system.l3cache.ReadExReq_avg_mshr_miss_latency::total 66621.739130                       # average ReadExReq mshr miss latency
system.l3cache.ReadSharedReq_avg_mshr_miss_latency::.cpu.inst 65868.365180                       # average ReadSharedReq mshr miss latency
system.l3cache.ReadSharedReq_avg_mshr_miss_latency::.cpu.data 70811.403509                       # average ReadSharedReq mshr miss latency
system.l3cache.ReadSharedReq_avg_mshr_miss_latency::total 66831.623932                       # average ReadSharedReq mshr miss latency
system.l3cache.demand_avg_mshr_miss_latency::.cpu.inst 65868.365180                       # average overall mshr miss latency
system.l3cache.demand_avg_mshr_miss_latency::.cpu.data 68707.423581                       # average overall mshr miss latency
system.l3cache.demand_avg_mshr_miss_latency::total 66797.142857                       # average overall mshr miss latency
system.l3cache.overall_avg_mshr_miss_latency::.cpu.inst 65868.365180                       # average overall mshr miss latency
system.l3cache.overall_avg_mshr_miss_latency::.cpu.data 68707.423581                       # average overall mshr miss latency
system.l3cache.overall_avg_mshr_miss_latency::total 66797.142857                       # average overall mshr miss latency
system.l3cache.replacements                         0                       # number of replacements
system.membus.snoop_filter.tot_requests           700                       # Total number of requests made to the snoop filter.
system.membus.snoop_filter.hit_single_requests            0                       # Number of requests hitting in the snoop filter with a single holder of the requested data.
system.membus.snoop_filter.hit_multi_requests            0                       # Number of requests hitting in the snoop filter with multiple (>1) holders of the requested data.
system.membus.snoop_filter.tot_snoops               0                       # Total number of snoops made to the snoop filter.
system.membus.snoop_filter.hit_single_snoops            0                       # Number of snoops hitting in the snoop filter with a single holder of the requested data.
system.membus.snoop_filter.hit_multi_snoops            0                       # Number of snoops hitting in the snoop filter with multiple (>1) holders of the requested data.
system.membus.pwrStateResidencyTicks::UNDEFINED     44318000                       # Cumulative time (in ticks) in various power states
system.membus.trans_dist::ReadResp                585                       # Transaction distribution
system.membus.trans_dist::ReadExReq               115                       # Transaction distribution
system.membus.trans_dist::ReadExResp              115                       # Transaction distribution
system.membus.trans_dist::ReadSharedReq           585                       # Transaction distribution
system.membus.pkt_count_system.l3cache.mem_side::system.mem_ctrl.port         1400                       # Packet count per connected master and slave (bytes)
system.membus.pkt_count_system.l3cache.mem_side::total         1400                       # Packet count per connected master and slave (bytes)
system.membus.pkt_count::total                   1400                       # Packet count per connected master and slave (bytes)
system.membus.pkt_size_system.l3cache.mem_side::system.mem_ctrl.port        44800                       # Cumulative packet size per connected master and slave (bytes)
system.membus.pkt_size_system.l3cache.mem_side::total        44800                       # Cumulative packet size per connected master and slave (bytes)
system.membus.pkt_size::total                   44800                       # Cumulative packet size per connected master and slave (bytes)
system.membus.snoops                                0                       # Total snoops (count)
system.membus.snoopTraffic                          0                       # Total snoop traffic (bytes)
system.membus.snoop_fanout::samples               700                       # Request fanout histogram
system.membus.snoop_fanout::mean                    0                       # Request fanout histogram
system.membus.snoop_fanout::stdev                   0                       # Request fanout histogram
system.membus.snoop_fanout::underflows              0      0.00%      0.00% # Request fanout histogram
system.membus.snoop_fanout::0                     700    100.00%    100.00% # Request fanout histogram
system.membus.snoop_fanout::1                       0      0.00%    100.00% # Request fanout histogram
system.membus.snoop_fanout::overflows               0      0.00%    100.00% # Request fanout histogram
system.membus.snoop_fanout::min_value               0                       # Request fanout histogram
system.membus.snoop_fanout::max_value               0                       # Request fanout histogram
system.membus.snoop_fanout::total                 700                       # Request fanout histogram
system.membus.reqLayer0.occupancy              350000                       # Layer occupancy (ticks)
system.membus.reqLayer0.utilization               0.8                       # Layer utilization (%)
system.membus.respLayer0.occupancy            1899750                       # Layer occupancy (ticks)
system.membus.respLayer0.utilization              4.3                       # Layer utilization (%)

---------- End Simulation Statistics   ----------