
---------- Begin Simulation Statistics ----------
sim_seconds                                  0.000047                       # Number of seconds simulated
sim_ticks                                    47160500                       # Number of ticks simulated
final_tick                                   47160500                       # Number of ticks from beginning of simulation (restored from checkpoints and never reset)
sim_freq                                 1000000000000                       # Frequency of simulated ticks
host_inst_rate                                  42168                       # Simulator instruction rate (inst/s)
host_op_rate                                    85101                       # Simulator op (including micro ops) rate (op/s)
host_tick_rate                              256883783                       # Simulator tick rate (ticks/s)
host_mem_usage                                 655560                       # Number of bytes of host memory used
host_seconds                                     0.18                       # Real time elapsed on the host
sim_insts                                        7741                       # Number of instructions simulated
sim_ops                                         15623                       # Number of ops (including micro ops) simulated
system.clk_domain.voltage_domain.voltage            1                       # Voltage in Volts
system.clk_domain.clock                           500                       # Clock period in ticks
system.mem_ctrl.pwrStateResidencyTicks::UNDEFINED     47160500                       # Cumulative time (in ticks) in various power states
system.mem_ctrl.bytes_read::.cpu.inst           33472                       # Number of bytes read from this memory
system.mem_ctrl.bytes_read::.cpu.data           16128                       # Number of bytes read from this memory
system.mem_ctrl.bytes_read::total               49600                       # Number of bytes read from this memory
system.mem_ctrl.bytes_inst_read::.cpu.inst        33472                       # Number of instructions bytes read from this memory
system.mem_ctrl.bytes_inst_read::total          33472                       # Number of instructions bytes read from this memory
system.mem_ctrl.num_reads::.cpu.inst              523                       # Number of read requests responded to by this memory
system.mem_ctrl.num_reads::.cpu.data              252                       # Number of read requests responded to by this memory
system.mem_ctrl.num_reads::total                  775                       # Number of read requests responded to by this memory
system.mem_ctrl.bw_read::.cpu.inst          709746504                       # Total read bandwidth from this memory (bytes/s)
system.mem_ctrl.bw_read::.cpu.data          341981107                       # Total read bandwidth from this memory (bytes/s)
system.mem_ctrl.bw_read::total             1051727611                       # Total read bandwidth from this memory (bytes/s)
system.mem_ctrl.bw_inst_read::.cpu.inst     709746504                       # Instruction read bandwidth from this memory (bytes/s)
system.mem_ctrl.bw_inst_read::total         709746504                       # Instruction read bandwidth from this memory (bytes/s)
system.mem_ctrl.bw_total::.cpu.inst         709746504                       # Total bandwidth to/from this memory (bytes/s)
system.mem_ctrl.bw_total::.cpu.data         341981107                       # Total bandwidth to/from this memory (bytes/s)
system.mem_ctrl.bw_total::total            1051727611                       # Total bandwidth to/from this memory (bytes/s)
system.mem_ctrl.avgPriority_.cpu.inst::samples       523.00                       # Average QoS priority value for accepted requests
system.mem_ctrl.avgPriority_.cpu.data::samples       252.00                       # Average QoS priority value for accepted requests
system.mem_ctrl.priorityMinLatency       0.000000018750                       # per QoS priority minimum request to response latency (s)
system.mem_ctrl.priorityMaxLatency       0.000000596000                       # per QoS priority maximum request to response latency (s)
system.mem_ctrl.numReadWriteTurnArounds             0                       # Number of turnarounds from READ to WRITE
system.mem_ctrl.numWriteReadTurnArounds             0                       # Number of turnarounds from WRITE to READ
system.mem_ctrl.numStayReadState                 1528                       # Number of times bus staying in READ state
system.mem_ctrl.numStayWriteState                   0                       # Number of times bus staying in WRITE state
system.mem_ctrl.readReqs                          775                       # Number of read requests accepted
system.mem_ctrl.writeReqs                           0                       # Number of write requests accepted
system.mem_ctrl.readBursts                        775                       # Number of DRAM read bursts, including those serviced by the write queue
system.mem_ctrl.writeBursts                         0                       # Number of DRAM write bursts, including those merged in the write queue
system.mem_ctrl.bytesReadDRAM                   49600                       # Total number of bytes read from DRAM
system.mem_ctrl.bytesReadWrQ                        0                       # Total number of bytes read from write queue
system.mem_ctrl.bytesWritten                        0                       # Total number of bytes written to DRAM
system.mem_ctrl.bytesReadSys                    49600                       # Total read bytes from the system interface side
system.mem_ctrl.bytesWrittenSys                     0                       # Total written bytes from the system interface side
system.mem_ctrl.servicedByWrQ                       0                       # Number of DRAM read bursts serviced by the write queue
system.mem_ctrl.mergedWrBursts                      0                       # Number of DRAM write bursts merged with an existing one
system.mem_ctrl.neitherReadNorWriteReqs             0                       # Number of requests that are neither read nor write
system.mem_ctrl.perBankRdBursts::0                144                       # Per bank write bursts
system.mem_ctrl.perBankRdBursts::1                 31                       # Per bank write bursts
system.mem_ctrl.perBankRdBursts::2                 36                       # Per bank write bursts
system.mem_ctrl.perBankRdBursts::3                 15                       # Per bank write bursts
system.mem_ctrl.perBankRdBursts::4                 25                       # Per bank write bursts
system.mem_ctrl.perBankRdBursts::5                 12                       # Per bank write bursts
system.mem_ctrl.perBankRdBursts::6                 70                       # Per bank write bursts
system.mem_ctrl.perBankRdBursts::7                 31                       # Per bank write bursts
system.mem_ctrl.perBankRdBursts::8                  2                       # Per bank write bursts
system.mem_ctrl.perBankRdBursts::9                 10                       # Per bank write bursts
system.mem_ctrl.perBankRdBursts::10               116                       # Per bank write bursts
system.mem_ctrl.perBankRdBursts::11                64                       # Per bank write bursts
system.mem_ctrl.perBankRdBursts::12                10                       # Per bank write bursts
system.mem_ctrl.perBankRdBursts::13                27                       # Per bank write bursts
system.mem_ctrl.perBankRdBursts::14                89                       # Per bank write bursts
system.mem_ctrl.perBankRdBursts::15                93                       # Per bank write bursts
system.mem_ctrl.perBankWrBursts::0                  0                       # Per bank write bursts
system.mem_ctrl.perBankWrBursts::1                  0                       # Per bank write bursts
system.mem_ctrl.perBankWrBursts::2                  0                       # Per bank write bursts
system.mem_ctrl.perBankWrBursts::3                  0                       # Per bank write bursts
system.mem_ctrl.perBankWrBursts::4                  0                       # Per bank write bursts
system.mem_ctrl.perBankWrBursts::5                  0                       # Per bank write bursts
system.mem_ctrl.perBankWrBursts::6                  0                       # Per bank write bursts
system.mem_ctrl.perBankWrBursts::7                  0                       # Per bank write bursts
system.mem_ctrl.perBankWrBursts::8                  0                       # Per bank write bursts
system.mem_ctrl.perBankWrBursts::9                  0                       # Per bank write bursts
system.mem_ctrl.perBankWrBursts::10                 0                       # Per bank write bursts
system.mem_ctrl.perBankWrBursts::11                 0                       # Per bank write bursts
system.mem_ctrl.perBankWrBursts::12                 0                       # Per bank write bursts
system.mem_ctrl.perBankWrBursts::13                 0                       # Per bank write bursts
system.mem_ctrl.perBankWrBursts::14                 0                       # Per bank write bursts
system.mem_ctrl.perBankWrBursts::15                 0                       # Per bank write bursts
system.mem_ctrl.numRdRetry                          0                       # Number of times read queue was full causing retry
system.mem_ctrl.numWrRetry                          0                       # Number of times write queue was full causing retry
system.mem_ctrl.totGap                       47069000                       # Total gap between requests
system.mem_ctrl.readPktSize::0                      0                       # Read request sizes (log2)
system.mem_ctrl.readPktSize::1                      0                       # Read request sizes (log2)
system.mem_ctrl.readPktSize::2                      0                       # Read request sizes (log2)
system.mem_ctrl.readPktSize::3                      0                       # Read request sizes (log2)
system.mem_ctrl.readPktSize::4                      0                       # Read request sizes (log2)
system.mem_ctrl.readPktSize::5                      0                       # Read request sizes (log2)
system.mem_ctrl.readPktSize::6                    775                       # Read request sizes (log2)
system.mem_ctrl.writePktSize::0                     0                       # Write request sizes (log2)
system.mem_ctrl.writePktSize::1                     0                       # Write request sizes (log2)
system.mem_ctrl.writePktSize::2                     0                       # Write request sizes (log2)
system.mem_ctrl.writePktSize::3                     0                       # Write request sizes (log2)
system.mem_ctrl.writePktSize::4                     0                       # Write request sizes (log2)
system.mem_ctrl.writePktSize::5                     0                       # Write request sizes (log2)
system.mem_ctrl.writePktSize::6                     0                       # Write request sizes (log2)
system.mem_ctrl.rdQLenPdf::0                      501                       # What read queue length does an incoming req see
system.mem_ctrl.rdQLenPdf::1                      205                       # What read queue length does an incoming req see
system.mem_ctrl.rdQLenPdf::2                       53                       # What read queue length does an incoming req see
system.mem_ctrl.rdQLenPdf::3                       14                       # What read queue length does an incoming req see
system.mem_ctrl.rdQLenPdf::4                        2                       # What read queue length does an incoming req see
system.mem_ctrl.rdQLenPdf::5                        0                       # What read queue length does an incoming req see
system.mem_ctrl.rdQLenPdf::6                        0                       # What read queue length does an incoming req see
system.mem_ctrl.rdQLenPdf::7                        0                       # What read queue length does an incoming req see
system.mem_ctrl.rdQLenPdf::8                        0                       # What read queue length does an incoming req see
system.mem_ctrl.rdQLenPdf::9                        0                       # What read queue length does an incoming req see
system.mem_ctrl.rdQLenPdf::10                       0                       # What read queue length does an incoming req see
system.mem_ctrl.rdQLenPdf::11                       0                       # What read queue length does an incoming req see
system.mem_ctrl.rdQLenPdf::12                       0                       # What read queue length does an incoming req see
system.mem_ctrl.rdQLenPdf::13                       0                       # What read queue length does an incoming req see
system.mem_ctrl.rdQLenPdf::14                       0                       # What read queue length does an incoming req see
system.mem_ctrl.rdQLenPdf::15                       0                       # What read queue length does an incoming req see
system.mem_ctrl.rdQLenPdf::16                       0                       # What read queue length does an incoming req see
system.mem_ctrl.rdQLenPdf::17                       0                       # What read queue length does an incoming req see
system.mem_ctrl.rdQLenPdf::18                       0                       # What read queue length does an incoming req see
system.mem_ctrl.rdQLenPdf::19                       0                       # What read queue length does an incoming req see
system.mem_ctrl.rdQLenPdf::20                       0                       # What read queue length does an incoming req see
system.mem_ctrl.rdQLenPdf::21                       0                       # What read queue length does an incoming req see
system.mem_ctrl.rdQLenPdf::22                       0                       # What read queue length does an incoming req see
system.mem_ctrl.rdQLenPdf::23                       0                       # What read queue length does an incoming req see
system.mem_ctrl.rdQLenPdf::24                       0                       # What read queue length does an incoming req see
system.mem_ctrl.rdQLenPdf::25                       0                       # What read queue length does an incoming req see
system.mem_ctrl.rdQLenPdf::26                       0                       # What read queue length does an incoming req see
system.mem_ctrl.rdQLenPdf::27                       0                       # What read queue length does an incoming req see
system.mem_ctrl.rdQLenPdf::28                       0                       # What read queue length does an incoming req see
system.mem_ctrl.rdQLenPdf::29                       0                       # What read queue length does an incoming req see
system.mem_ctrl.rdQLenPdf::30                       0                       # What read queue length does an incoming req see
system.mem_ctrl.rdQLenPdf::31                       0                       # What read queue length does an incoming req see
system.mem_ctrl.wrQLenPdf::0                        0                       # What write queue length does an incoming req see
system.mem_ctrl.wrQLenPdf::1                        0                       # What write queue length does an incoming req see
system.mem_ctrl.wrQLenPdf::2                        0                       # What write queue length does an incoming req see
system.mem_ctrl.wrQLenPdf::3                        0                       # What write queue length does an incoming req see
system.mem_ctrl.wrQLenPdf::4                        0                       # What write queue length does an incoming req see
system.mem_ctrl.wrQLenPdf::5                        0                       # What write queue length does an incoming req see
system.mem_ctrl.wrQLenPdf::6                        0                       # What write queue length does an incoming req see
system.mem_ctrl.wrQLenPdf::7                        0                       # What write queue length does an incoming req see
system.mem_ctrl.wrQLenPdf::8                        0                       # What write queue length does an incoming req see
system.mem_ctrl.wrQLenPdf::9                        0                       # What write queue length does an incoming req see
system.mem_ctrl.wrQLenPdf::10                       0                       # What write queue length does an incoming req see
system.mem_ctrl.wrQLenPdf::11                       0                       # What write queue length does an incoming req see
system.mem_ctrl.wrQLenPdf::12                       0                       # What write queue length does an incoming req see
system.mem_ctrl.wrQLenPdf::13                       0                       # What write queue length does an incoming req see
system.mem_ctrl.wrQLenPdf::14                       0                       # What write queue length does an incoming req see
system.mem_ctrl.wrQLenPdf::15                       0                       # What write queue length does an incoming req see
system.mem_ctrl.wrQLenPdf::16                       0                       # What write queue length does an incoming req see
system.mem_ctrl.wrQLenPdf::17                       0                       # What write queue length does an incoming req see
system.mem_ctrl.wrQLenPdf::18                       0                       # What write queue length does an incoming req see
system.mem_ctrl.wrQLenPdf::19                       0                       # What write queue length does an incoming req see
system.mem_ctrl.wrQLenPdf::20                       0                       # What write queue length does an incoming req see
system.mem_ctrl.wrQLenPdf::21                       0                       # What write queue length does an incoming req see
system.mem_ctrl.wrQLenPdf::22                       0                       # What write queue length does an incoming req see
system.mem_ctrl.wrQLenPdf::23                       0                       # What write queue length does an incoming req see
system.mem_ctrl.wrQLenPdf::24                       0                       # What write queue length does an incoming req see
system.mem_ctrl.wrQLenPdf::25                       0                       # What write queue length does an incoming req see
system.mem_ctrl.wrQLenPdf::26                       0                       # What write queue length does an incoming req see
system.mem_ctrl.wrQLenPdf::27                       0                       # What write queue length does an incoming req see
system.mem_ctrl.wrQLenPdf::28                       0                       # What write queue length does an incoming req see
system.mem_ctrl.wrQLenPdf::29                       0                       # What write queue length does an incoming req see
system.mem_ctrl.wrQLenPdf::30                       0                       # What write queue length does an incoming req see
system.mem_ctrl.wrQLenPdf::31                       0                       # What write queue length does an incoming req see
system.mem_ctrl.wrQLenPdf::32                       0                       # What write queue length does an incoming req see
system.mem_ctrl.wrQLenPdf::33                       0                       # What write queue length does an incoming req see
system.mem_ctrl.wrQLenPdf::34                       0                       # What write queue length does an incoming req see
system.mem_ctrl.wrQLenPdf::35                       0                       # What write queue length does an incoming req see
system.mem_ctrl.wrQLenPdf::36                       0                       # What write queue length does an incoming req see
system.mem_ctrl.wrQLenPdf::37                       0                       # What write queue length does an incoming req see
system.mem_ctrl.wrQLenPdf::38                       0                       # What write queue length does an incoming req see
system.mem_ctrl.wrQLenPdf::39                       0                       # What write queue length does an incoming req see
system.mem_ctrl.wrQLenPdf::40                       0                       # What write queue length does an incoming req see
system.mem_ctrl.wrQLenPdf::41                       0                       # What write queue length does an incoming req see
system.mem_ctrl.wrQLenPdf::42                       0                       # What write queue length does an incoming req see
system.mem_ctrl.wrQLenPdf::43                       0                       # What write queue length does an incoming req see
system.mem_ctrl.wrQLenPdf::44                       0                       # What write queue length does an incoming req see
system.mem_ctrl.wrQLenPdf::45                       0                       # What write queue length does an incoming req see
system.mem_ctrl.wrQLenPdf::46                       0                       # What write queue length does an incoming req see
system.mem_ctrl.wrQLenPdf::47                       0                       # What write queue length does an incoming req see
system.mem_ctrl.wrQLenPdf::48                       0                       # What write queue length does an incoming req see
system.mem_ctrl.wrQLenPdf::49                       0                       # What write queue length does an incoming req see
system.mem_ctrl.wrQLenPdf::50                       0                       # What write queue length does an incoming req see
system.mem_ctrl.wrQLenPdf::51                       0                       # What write queue length does an incoming req see
system.mem_ctrl.wrQLenPdf::52                       0                       # What write queue length does an incoming req see
system.mem_ctrl.wrQLenPdf::53                       0                       # What write queue length does an incoming req see
system.mem_ctrl.wrQLenPdf::54                       0                       # What write queue length does an incoming req see
system.mem_ctrl.wrQLenPdf::55                       0                       # What write queue length does an incoming req see
system.mem_ctrl.wrQLenPdf::56                       0                       # What write queue length does an incoming req see
system.mem_ctrl.wrQLenPdf::57                       0                       # What write queue length does an incoming req see
system.mem_ctrl.wrQLenPdf::58                       0                       # What write queue length does an incoming req see
system.mem_ctrl.wrQLenPdf::59                       0                       # What write queue length does an incoming req see
system.mem_ctrl.wrQLenPdf::60                       0                       # What write queue length does an incoming req see
system.mem_ctrl.wrQLenPdf::61                       0                       # What write queue length does an incoming req see
system.mem_ctrl.wrQLenPdf::62                       0                       # What write queue length does an incoming req see
system.mem_ctrl.wrQLenPdf::63                       0                       # What write queue length does an incoming req see
system.mem_ctrl.bytesPerActivate::samples          179                       # Bytes accessed per row activation
system.mem_ctrl.bytesPerActivate::mean     276.379888                       # Bytes accessed per row activation
system.mem_ctrl.bytesPerActivate::gmean    173.269410                       # Bytes accessed per row activation
system.mem_ctrl.bytesPerActivate::stdev    286.250835                       # Bytes accessed per row activation
system.mem_ctrl.bytesPerActivate::0-127            67     37.43%     37.43% # Bytes accessed per row activation
system.mem_ctrl.bytesPerActivate::128-255           41     22.91%     60.34% # Bytes accessed per row activation
system.mem_ctrl.bytesPerActivate::256-383           28     15.64%     75.98% # Bytes accessed per row activation
system.mem_ctrl.bytesPerActivate::384-511           11      6.15%     82.12% # Bytes accessed per row activation
system.mem_ctrl.bytesPerActivate::512-639            4      2.23%     84.36% # Bytes accessed per row activation
system.mem_ctrl.bytesPerActivate::640-767            9      5.03%     89.39% # Bytes accessed per row activation
system.mem_ctrl.bytesPerActivate::768-895            4      2.23%     91.62% # Bytes accessed per row activation
system.mem_ctrl.bytesPerActivate::896-1023            4      2.23%     93.85% # Bytes accessed per row activation
system.mem_ctrl.bytesPerActivate::1024-1151           11      6.15%    100.00% # Bytes accessed per row activation
system.mem_ctrl.bytesPerActivate::total           179                       # Bytes accessed per row activation
system.mem_ctrl.masterReadBytes::.cpu.inst        33472                       # Per-master bytes read from memory
system.mem_ctrl.masterReadBytes::.cpu.data        16128                       # Per-master bytes read from memory
system.mem_ctrl.masterReadRate::.cpu.inst 709746503.959881782532                       # Per-master bytes read from memory rate (Bytes/sec)
system.mem_ctrl.masterReadRate::.cpu.data 341981107.070535719395                       # Per-master bytes read from memory rate (Bytes/sec)
system.mem_ctrl.masterReadAccesses::.cpu.inst          523                       # Per-master read serviced memory accesses
system.mem_ctrl.masterReadAccesses::.cpu.data          252                       # Per-master read serviced memory accesses
system.mem_ctrl.masterReadTotalLat::.cpu.inst     17277250                       # Per-master read total memory access latency
system.mem_ctrl.masterReadTotalLat::.cpu.data      8585500                       # Per-master read total memory access latency
system.mem_ctrl.masterReadAvgLat::.cpu.inst     33034.89                       # Per-master read average memory access latency
system.mem_ctrl.masterReadAvgLat::.cpu.data     34069.44                       # Per-master read average memory access latency
system.mem_ctrl.totQLat                      11331500                       # Total ticks spent queuing
system.mem_ctrl.totMemAccLat                 25862750                       # Total ticks spent from burst creation until serviced by the DRAM
system.mem_ctrl.totBusLat                     3875000                       # Total ticks spent in databus transfers
system.mem_ctrl.avgQLat                      14621.29                       # Average queueing delay per DRAM burst
system.mem_ctrl.avgBusLat                     5000.00                       # Average bus latency per DRAM burst
system.mem_ctrl.avgMemAccLat                 33371.29                       # Average memory access latency per DRAM burst
system.mem_ctrl.avgRdBW                       1051.73                       # Average DRAM read bandwidth in MiByte/s
system.mem_ctrl.avgWrBW                          0.00                       # Average achieved write bandwidth in MiByte/s
system.mem_ctrl.avgRdBWSys                    1051.73                       # Average system read bandwidth in MiByte/s
system.mem_ctrl.avgWrBWSys                       0.00                       # Average system write bandwidth in MiByte/s
system.mem_ctrl.peakBW                       12800.00                       # Theoretical peak bandwidth in MiByte/s
system.mem_ctrl.busUtil                          8.22                       # Data bus utilization in percentage
system.mem_ctrl.busUtilRead                      8.22                       # Data bus utilization in percentage for reads
system.mem_ctrl.busUtilWrite                     0.00                       # Data bus utilization in percentage for writes
system.mem_ctrl.avgRdQLen                        1.51                       # Average read queue length when enqueuing
system.mem_ctrl.avgWrQLen                        0.00                       # Average write queue length when enqueuing
system.mem_ctrl.readRowHits                       595                       # Number of row buffer hits during reads
system.mem_ctrl.writeRowHits                        0                       # Number of row buffer hits during writes
system.mem_ctrl.readRowHitRate                  76.77                       # Row buffer hit rate for reads
system.mem_ctrl.writeRowHitRate                   nan                       # Row buffer hit rate for writes
system.mem_ctrl.avgGap                       60734.19                       # Average gap between requests
system.mem_ctrl.pageHitRate                     76.77                       # Row buffer hit rate, read and write combined
system.mem_ctrl_0.actEnergy                    571200                       # Energy for activate commands per rank (pJ)
system.mem_ctrl_0.preEnergy                    299805                       # Energy for precharge commands per rank (pJ)
system.mem_ctrl_0.readEnergy                  2598960                       # Energy for read commands per rank (pJ)
system.mem_ctrl_0.writeEnergy                       0                       # Energy for write commands per rank (pJ)
system.mem_ctrl_0.refreshEnergy          3687840.000000                       # Energy for refresh commands per rank (pJ)
system.mem_ctrl_0.actBackEnergy               5107770                       # Energy for active background per rank (pJ)
system.mem_ctrl_0.preBackEnergy                108960                       # Energy for precharge background per rank (pJ)
system.mem_ctrl_0.actPowerDownEnergy         15811800                       # Energy for active power-down per rank (pJ)
system.mem_ctrl_0.prePowerDownEnergy           384480                       # Energy for precharge power-down per rank (pJ)
system.mem_ctrl_0.selfRefreshEnergy                 0                       # Energy for self refresh per rank (pJ)
system.mem_ctrl_0.totalEnergy                28570815                       # Total energy per rank (pJ)
system.mem_ctrl_0.averagePower             605.820867                       # Core power per rank (mW)
system.mem_ctrl_0.totalIdleTime              35623500                       # Total Idle time Per DRAM Rank
system.mem_ctrl_0.memoryStateTime::IDLE         48500                       # Time in different power states
system.mem_ctrl_0.memoryStateTime::REF        1560000                       # Time in different power states
system.mem_ctrl_0.memoryStateTime::SREF             0                       # Time in different power states
system.mem_ctrl_0.memoryStateTime::PRE_PDN      1001500                       # Time in different power states
system.mem_ctrl_0.memoryStateTime::ACT        9880250                       # Time in different power states
system.mem_ctrl_0.memoryStateTime::ACT_PDN     34670250                       # Time in different power states
system.mem_ctrl_1.actEnergy                    714000                       # Energy for activate commands per rank (pJ)
system.mem_ctrl_1.preEnergy                    379500                       # Energy for precharge commands per rank (pJ)
system.mem_ctrl_1.readEnergy                  2934540                       # Energy for read commands per rank (pJ)
system.mem_ctrl_1.writeEnergy                       0                       # Energy for write commands per rank (pJ)
system.mem_ctrl_1.refreshEnergy          3687840.000000                       # Energy for refresh commands per rank (pJ)
system.mem_ctrl_1.actBackEnergy               5395050                       # Energy for active background per rank (pJ)
system.mem_ctrl_1.preBackEnergy                126240                       # Energy for precharge background per rank (pJ)
system.mem_ctrl_1.actPowerDownEnergy         15116400                       # Energy for active power-down per rank (pJ)
system.mem_ctrl_1.prePowerDownEnergy           710880                       # Energy for precharge power-down per rank (pJ)
system.mem_ctrl_1.selfRefreshEnergy                 0                       # Energy for self refresh per rank (pJ)
system.mem_ctrl_1.totalEnergy                29064450                       # Total energy per rank (pJ)
system.mem_ctrl_1.averagePower             616.287995                       # Core power per rank (mW)
system.mem_ctrl_1.totalIdleTime              34818250                       # Total Idle time Per DRAM Rank
system.mem_ctrl_1.memoryStateTime::IDLE        136500                       # Time in different power states
system.mem_ctrl_1.memoryStateTime::REF        1560000                       # Time in different power states
system.mem_ctrl_1.memoryStateTime::SREF             0                       # Time in different power states
system.mem_ctrl_1.memoryStateTime::PRE_PDN      1850500                       # Time in different power states
system.mem_ctrl_1.memoryStateTime::ACT       10482500                       # Time in different power states
system.mem_ctrl_1.memoryStateTime::ACT_PDN     33131000                       # Time in different power states
system.pwrStateResidencyTicks::UNDEFINED     47160500                       # Cumulative time (in ticks) in various power states
system.cpu.branchPred.lookups                    3846                       # Number of BP lookups
system.cpu.branchPred.condPredicted              3846                       # Number of conditional branches predicted
system.cpu.branchPred.condIncorrect               864                       # Number of conditional branches incorrect
system.cpu.branchPred.BTBLookups                 3478                       # Number of BTB lookups
system.cpu.branchPred.BTBHits                       0                       # Number of BTB hits
system.cpu.branchPred.BTBCorrect                    0                       # Number of correct BTB predictions (this stat may not work properly.
system.cpu.branchPred.BTBHitPct              0.000000                       # BTB Hit Percentage
system.cpu.branchPred.usedRAS                     282                       # Number of times the RAS was used to get a target.
system.cpu.branchPred.RASInCorrect                136                       # Number of incorrect RAS predictions.
system.cpu.branchPred.indirectLookups            3478                       # Number of indirect predictor lookups.
system.cpu.branchPred.indirectHits                419                       # Number of indirect target hits.
system.cpu.branchPred.indirectMisses             3059                       # Number of indirect misses.
system.cpu.branchPredindirectMispredicted          680                       # Number of mispredicted indirect branches.
system.cpu.dtb.walker.pwrStateResidencyTicks::UNDEFINED     47160500                       # Cumulative time (in ticks) in various power states
system.cpu.dtb.rdAccesses                        2233                       # TLB accesses on read requests
system.cpu.dtb.wrAccesses                        1812                       # TLB accesses on write requests
system.cpu.dtb.rdMisses                            84                       # TLB misses on read requests
system.cpu.dtb.wrMisses                            30                       # TLB misses on write requests
system.cpu.apic_clk_domain.clock                 8000                       # Clock period in ticks
system.cpu.interrupts.pwrStateResidencyTicks::UNDEFINED     47160500                       # Cumulative time (in ticks) in various power states
system.cpu.itb.walker.pwrStateResidencyTicks::UNDEFINED     47160500                       # Cumulative time (in ticks) in various power states
system.cpu.itb.rdAccesses                           0                       # TLB accesses on read requests
system.cpu.itb.wrAccesses                        2543                       # TLB accesses on write requests
system.cpu.itb.rdMisses                             0                       # TLB misses on read requests
system.cpu.itb.wrMisses                           134                       # TLB misses on write requests
system.cpu.workload.numSyscalls                    11                       # Number of system calls
system.cpu.pwrStateResidencyTicks::ON        47160500                       # Cumulative time (in ticks) in various power states
system.cpu.numCycles                            94322                       # number of cpu cycles simulated
system.cpu.numWorkItemsStarted                      0                       # number of work items this cpu started
system.cpu.numWorkItemsCompleted                    0                       # number of work items this cpu completed
system.cpu.fetch.icacheStallCycles              34281                       # Number of cycles fetch is stalled on an Icache miss
system.cpu.fetch.Insts                          18022                       # Number of instructions fetch has processed
system.cpu.fetch.Branches                        3846                       # Number of branches that fetch encountered
system.cpu.fetch.predictedBranches                701                       # Number of branches that fetch has predicted taken
system.cpu.fetch.Cycles                         31097                       # Number of cycles fetch has run and was not squashing or blocked
system.cpu.fetch.SquashCycles                    1848                       # Number of cycles fetch has spent squashing
system.cpu.fetch.MiscStallCycles                   60                       # Number of cycles fetch has spent waiting on interrupts, or bad addresses, or out of MSHRs
system.cpu.fetch.PendingTrapStallCycles           720                       # Number of stall cycles due to pending traps
system.cpu.fetch.PendingQuiesceStallCycles           19                       # Number of stall cycles due to pending quiesce instructions
system.cpu.fetch.CacheLines                      2458                       # Number of cache lines fetched
system.cpu.fetch.IcacheSquashes                   309                       # Number of outstanding Icache misses that were squashed
system.cpu.fetch.rateDist::samples              67101                       # Number of instructions fetched each cycle (Total)
system.cpu.fetch.rateDist::mean              0.535715                       # Number of instructions fetched each cycle (Total)
system.cpu.fetch.rateDist::stdev             0.877994                       # Number of instructions fetched each cycle (Total)
system.cpu.fetch.rateDist::underflows               0      0.00%      0.00% # Number of instructions fetched each cycle (Total)
system.cpu.fetch.rateDist::0                    48672     72.54%     72.54% # Number of instructions fetched each cycle (Total)
system.cpu.fetch.rateDist::1                      911      1.36%     73.89% # Number of instructions fetched each cycle (Total)
system.cpu.fetch.rateDist::2                    17518     26.11%    100.00% # Number of instructions fetched each cycle (Total)
system.cpu.fetch.rateDist::overflows                0      0.00%    100.00% # Number of instructions fetched each cycle (Total)
system.cpu.fetch.rateDist::min_value                0                       # Number of instructions fetched each cycle (Total)
system.cpu.fetch.rateDist::max_value                2                       # Number of instructions fetched each cycle (Total)
system.cpu.fetch.rateDist::total                67101                       # Number of instructions fetched each cycle (Total)
system.cpu.fetch.branchRate                  0.040775                       # Number of branch fetches per cycle
system.cpu.fetch.rate                        0.191069                       # Number of inst fetches per cycle
system.cpu.decode.IdleCycles                    33866                       # Number of cycles decode is idle
system.cpu.decode.BlockedCycles                 15421                       # Number of cycles decode is blocked
system.cpu.decode.RunCycles                     16458                       # Number of cycles decode is running
system.cpu.decode.UnblockCycles                   432                       # Number of cycles decode is unblocking
system.cpu.decode.SquashCycles                    924                       # Number of cycles decode is squashing
system.cpu.decode.DecodedInsts                  31223                       # Number of instructions handled by decode
system.cpu.decode.SquashedInsts                  1865                       # Number of squashed instructions handled by decode
system.cpu.rename.SquashCycles                    924                       # Number of cycles rename is squashing
system.cpu.rename.IdleCycles                    35666                       # Number of cycles rename is idle
system.cpu.rename.BlockCycles                    4437                       # Number of cycles rename is blocking
system.cpu.rename.serializeStallCycles           1395                       # count of cycles rename stalled for serializing inst
system.cpu.rename.RunCycles                     15063                       # Number of cycles rename is running
system.cpu.rename.UnblockCycles                  9616                       # Number of cycles rename is unblocking
system.cpu.rename.RenamedInsts                  29084                       # Number of instructions processed by rename
system.cpu.rename.SquashedInsts                   928                       # Number of squashed instructions processed by rename
system.cpu.rename.ROBFullEvents                    23                       # Number of times rename has blocked due to ROB full
system.cpu.rename.IQFullEvents                     83                       # Number of times rename has blocked due to IQ full
system.cpu.rename.SQFullEvents                   9297                       # Number of times rename has blocked due to SQ full
system.cpu.rename.FullRegisterEvents               15                       # Number of times there has been no free registers
system.cpu.rename.RenamedOperands               31421                       # Number of destination operands rename has renamed
system.cpu.rename.RenameLookups                 71585                       # Number of register rename lookups that rename has made
system.cpu.rename.int_rename_lookups            39681                       # Number of integer rename lookups
system.cpu.rename.fp_rename_lookups              4252                       # Number of floating rename lookups
system.cpu.rename.CommittedMaps                 16872                       # Number of HB maps that are committed
system.cpu.rename.UndoneMaps                    14549                       # Number of HB maps that are undone due to squashing
system.cpu.rename.serializingInsts                 29                       # count of serializing insts renamed
system.cpu.rename.tempSerializingInsts             26                       # count of temporary serializing insts renamed
system.cpu.rename.skidInsts                       893                       # count of insts added to the skid buffer
system.cpu.memDep0.insertedLoads                 2838                       # Number of loads inserted to the mem dependence unit.
system.cpu.memDep0.insertedStores                2354                       # Number of stores inserted to the mem dependence unit.
system.cpu.memDep0.conflictingLoads                16                       # Number of conflicting loads.
system.cpu.memDep0.conflictingStores               38                       # Number of conflicting stores.
system.cpu.iq.iqInstsAdded                      26897                       # Number of instructions added to the IQ (excludes non-spec)
system.cpu.iq.iqNonSpecInstsAdded                  77                       # Number of non-speculative instructions added to the IQ
system.cpu.iq.iqInstsIssued                     23595                       # Number of instructions issued
system.cpu.iq.iqSquashedInstsIssued               482                       # Number of squashed instructions issued
system.cpu.iq.iqSquashedInstsExamined           11350                       # Number of squashed instructions iterated over during squash; mainly for profiling
system.cpu.iq.iqSquashedOperandsExamined        14461                       # Number of squashed operands that are examined and possibly removed from graph
system.cpu.iq.iqSquashedNonSpecRemoved             66                       # Number of squashed non-spec instructions that were removed
system.cpu.iq.issued_per_cycle::samples         67101                       # Number of insts issued each cycle
system.cpu.iq.issued_per_cycle::mean         0.351634                       # Number of insts issued each cycle
system.cpu.iq.issued_per_cycle::stdev        0.704913                       # Number of insts issued each cycle
system.cpu.iq.issued_per_cycle::underflows            0      0.00%      0.00% # Number of insts issued each cycle
system.cpu.iq.issued_per_cycle::0               52528     78.28%     78.28% # Number of insts issued each cycle
system.cpu.iq.issued_per_cycle::1                5551      8.27%     86.55% # Number of insts issued each cycle
system.cpu.iq.issued_per_cycle::2                9022     13.45%    100.00% # Number of insts issued each cycle
system.cpu.iq.issued_per_cycle::overflows            0      0.00%    100.00% # Number of insts issued each cycle
system.cpu.iq.issued_per_cycle::min_value            0                       # Number of insts issued each cycle
system.cpu.iq.issued_per_cycle::max_value            2                       # Number of insts issued each cycle
system.cpu.iq.issued_per_cycle::total           67101                       # Number of insts issued each cycle
system.cpu.iq.fu_full::No_OpClass                   0      0.00%      0.00% # attempts to use FU when none available
system.cpu.iq.fu_full::IntAlu                       0      0.00%      0.00% # attempts to use FU when none available
system.cpu.iq.fu_full::IntMult                      0      0.00%      0.00% # attempts to use FU when none available
system.cpu.iq.fu_full::IntDiv                       0      0.00%      0.00% # attempts to use FU when none available
system.cpu.iq.fu_full::FloatAdd                     0      0.00%      0.00% # attempts to use FU when none available
system.cpu.iq.fu_full::FloatCmp                     0      0.00%      0.00% # attempts to use FU when none available
system.cpu.iq.fu_full::FloatCvt                     0      0.00%      0.00% # attempts to use FU when none available
system.cpu.iq.fu_full::FloatMult                    0      0.00%      0.00% # attempts to use FU when none available
system.cpu.iq.fu_full::FloatMultAcc                 0      0.00%      0.00% # attempts to use FU when none available
system.cpu.iq.fu_full::FloatDiv                     0      0.00%      0.00% # attempts to use FU when none available
system.cpu.iq.fu_full::FloatMisc                    0      0.00%      0.00% # attempts to use FU when none available
system.cpu.iq.fu_full::FloatSqrt                    0      0.00%      0.00% # attempts to use FU when none available
system.cpu.iq.fu_full::SimdAdd                    247     24.14%     24.14% # attempts to use FU when none available
system.cpu.iq.fu_full::SimdAddAcc                   0      0.00%     24.14% # attempts to use FU when none available
system.cpu.iq.fu_full::SimdAlu                     67      6.55%     30.69% # attempts to use FU when none available
system.cpu.iq.fu_full::SimdCmp                      1      0.10%     30.79% # attempts to use FU when none available
system.cpu.iq.fu_full::SimdCvt                     55      5.38%     36.17% # attempts to use FU when none available
system.cpu.iq.fu_full::SimdMisc                   171     16.72%     52.88% # attempts to use FU when none available
system.cpu.iq.fu_full::SimdMult                     0      0.00%     52.88% # attempts to use FU when none available
system.cpu.iq.fu_full::SimdMultAcc                  0      0.00%     52.88% # attempts to use FU when none available
system.cpu.iq.fu_full::SimdShift                  124     12.12%     65.00% # attempts to use FU when none available
system.cpu.iq.fu_full::SimdShiftAcc                 0      0.00%     65.00% # attempts to use FU when none available
system.cpu.iq.fu_full::SimdSqrt                     0      0.00%     65.00% # attempts to use FU when none available
system.cpu.iq.fu_full::SimdFloatAdd                 0      0.00%     65.00% # attempts to use FU when none available
system.cpu.iq.fu_full::SimdFloatAlu                 0      0.00%     65.00% # attempts to use FU when none available
system.cpu.iq.fu_full::SimdFloatCmp                 0      0.00%     65.00% # attempts to use FU when none available
system.cpu.iq.fu_full::SimdFloatCvt                 0      0.00%     65.00% # attempts to use FU when none available
system.cpu.iq.fu_full::SimdFloatDiv                 0      0.00%     65.00% # attempts to use FU when none available
system.cpu.iq.fu_full::SimdFloatMisc                0      0.00%     65.00% # attempts to use FU when none available
system.cpu.iq.fu_full::SimdFloatMult                0      0.00%     65.00% # attempts to use FU when none available
system.cpu.iq.fu_full::SimdFloatMultAcc             0      0.00%     65.00% # attempts to use FU when none available
system.cpu.iq.fu_full::SimdFloatSqrt                0      0.00%     65.00% # attempts to use FU when none available
system.cpu.iq.fu_full::SimdAes                      0      0.00%     65.00% # attempts to use FU when none available
system.cpu.iq.fu_full::SimdAesMix                   0      0.00%     65.00% # attempts to use FU when none available
system.cpu.iq.fu_full::SimdSha1Hash                 0      0.00%     65.00% # attempts to use FU when none available
system.cpu.iq.fu_full::SimdSha1Hash2                0      0.00%     65.00% # attempts to use FU when none available
system.cpu.iq.fu_full::SimdSha256Hash               0      0.00%     65.00% # attempts to use FU when none available
system.cpu.iq.fu_full::SimdSha256Hash2              0      0.00%     65.00% # attempts to use FU when none available
system.cpu.iq.fu_full::SimdShaSigma2                0      0.00%     65.00% # attempts to use FU when none available
system.cpu.iq.fu_full::SimdShaSigma3                0      0.00%     65.00% # attempts to use FU when none available
system.cpu.iq.fu_full::MemRead                    230     22.48%     87.49% # attempts to use FU when none available
system.cpu.iq.fu_full::MemWrite                   128     12.51%    100.00% # attempts to use FU when none available
system.cpu.iq.fu_full::FloatMemRead                 0      0.00%    100.00% # attempts to use FU when none available
system.cpu.iq.fu_full::FloatMemWrite                0      0.00%    100.00% # attempts to use FU when none available
system.cpu.iq.fu_full::IprAccess                    0      0.00%    100.00% # attempts to use FU when none available
system.cpu.iq.fu_full::InstPrefetch                 0      0.00%    100.00% # attempts to use FU when none available
system.cpu.iq.FU_type_0::No_OpClass               322      1.36%      1.36% # Type of FU issued
system.cpu.iq.FU_type_0::IntAlu                 17696     75.00%     76.36% # Type of FU issued
system.cpu.iq.FU_type_0::IntMult                    4      0.02%     76.38% # Type of FU issued
system.cpu.iq.FU_type_0::IntDiv                    31      0.13%     76.51% # Type of FU issued
system.cpu.iq.FU_type_0::FloatAdd                  12      0.05%     76.56% # Type of FU issued
system.cpu.iq.FU_type_0::FloatCmp                   0      0.00%     76.56% # Type of FU issued
system.cpu.iq.FU_type_0::FloatCvt                   0      0.00%     76.56% # Type of FU issued
system.cpu.iq.FU_type_0::FloatMult                  0      0.00%     76.56% # Type of FU issued
system.cpu.iq.FU_type_0::FloatMultAcc               0      0.00%     76.56% # Type of FU issued
system.cpu.iq.FU_type_0::FloatDiv                   0      0.00%     76.56% # Type of FU issued
system.cpu.iq.FU_type_0::FloatMisc                  0      0.00%     76.56% # Type of FU issued
system.cpu.iq.FU_type_0::FloatSqrt                  0      0.00%     76.56% # Type of FU issued
system.cpu.iq.FU_type_0::SimdAdd                  375      1.59%     78.15% # Type of FU issued
system.cpu.iq.FU_type_0::SimdAddAcc                 0      0.00%     78.15% # Type of FU issued
system.cpu.iq.FU_type_0::SimdAlu                  102      0.43%     78.58% # Type of FU issued
system.cpu.iq.FU_type_0::SimdCmp                    6      0.03%     78.61% # Type of FU issued
system.cpu.iq.FU_type_0::SimdCvt                  164      0.70%     79.30% # Type of FU issued
system.cpu.iq.FU_type_0::SimdMisc                 275      1.17%     80.47% # Type of FU issued
system.cpu.iq.FU_type_0::SimdMult                   0      0.00%     80.47% # Type of FU issued
system.cpu.iq.FU_type_0::SimdMultAcc                0      0.00%     80.47% # Type of FU issued
system.cpu.iq.FU_type_0::SimdShift                186      0.79%     81.26% # Type of FU issued
system.cpu.iq.FU_type_0::SimdShiftAcc               0      0.00%     81.26% # Type of FU issued
system.cpu.iq.FU_type_0::SimdSqrt                   0      0.00%     81.26% # Type of FU issued
system.cpu.iq.FU_type_0::SimdFloatAdd               0      0.00%     81.26% # Type of FU issued
system.cpu.iq.FU_type_0::SimdFloatAlu               0      0.00%     81.26% # Type of FU issued
system.cpu.iq.FU_type_0::SimdFloatCmp               0      0.00%     81.26% # Type of FU issued
system.cpu.iq.FU_type_0::SimdFloatCvt               0      0.00%     81.26% # Type of FU issued
system.cpu.iq.FU_type_0::SimdFloatDiv               0      0.00%     81.26% # Type of FU issued
system.cpu.iq.FU_type_0::SimdFloatMisc              0      0.00%     81.26% # Type of FU issued
system.cpu.iq.FU_type_0::SimdFloatMult              0      0.00%     81.26% # Type of FU issued
system.cpu.iq.FU_type_0::SimdFloatMultAcc            0      0.00%     81.26% # Type of FU issued
system.cpu.iq.FU_type_0::SimdFloatSqrt              0      0.00%     81.26% # Type of FU issued
system.cpu.iq.FU_type_0::SimdAes                    0      0.00%     81.26% # Type of FU issued
system.cpu.iq.FU_type_0::SimdAesMix                 0      0.00%     81.26% # Type of FU issued
system.cpu.iq.FU_type_0::SimdSha1Hash               0      0.00%     81.26% # Type of FU issued
system.cpu.iq.FU_type_0::SimdSha1Hash2              0      0.00%     81.26% # Type of FU issued
system.cpu.iq.FU_type_0::SimdSha256Hash             0      0.00%     81.26% # Type of FU issued
system.cpu.iq.FU_type_0::SimdSha256Hash2            0      0.00%     81.26% # Type of FU issued
system.cpu.iq.FU_type_0::SimdShaSigma2              0      0.00%     81.26% # Type of FU issued
system.cpu.iq.FU_type_0::SimdShaSigma3              0      0.00%     81.26% # Type of FU issued
system.cpu.iq.FU_type_0::MemRead                 2319      9.83%     91.09% # Type of FU issued
system.cpu.iq.FU_type_0::MemWrite                1516      6.43%     97.51% # Type of FU issued
system.cpu.iq.FU_type_0::FloatMemRead             150      0.64%     98.15% # Type of FU issued
system.cpu.iq.FU_type_0::FloatMemWrite            437      1.85%    100.00% # Type of FU issued
system.cpu.iq.FU_type_0::IprAccess                  0      0.00%    100.00% # Type of FU issued
system.cpu.iq.FU_type_0::InstPrefetch               0      0.00%    100.00% # Type of FU issued
system.cpu.iq.FU_type_0::total                  23595                       # Type of FU issued
system.cpu.iq.rate                           0.250154                       # Inst issue rate
system.cpu.iq.fu_busy_cnt                        1023                       # FU busy when requested
system.cpu.iq.fu_busy_rate                   0.043357                       # FU busy rate (busy events/executed inst)
system.cpu.iq.int_inst_queue_reads             110666                       # Number of integer instruction queue reads
system.cpu.iq.int_inst_queue_writes             35956                       # Number of integer instruction queue writes
system.cpu.iq.int_inst_queue_wakeup_accesses        18926                       # Number of integer instruction queue wakeup accesses
system.cpu.iq.fp_inst_queue_reads                5130                       # Number of floating instruction queue reads
system.cpu.iq.fp_inst_queue_writes               2371                       # Number of floating instruction queue writes
system.cpu.iq.fp_inst_queue_wakeup_accesses         2189                       # Number of floating instruction queue wakeup accesses
system.cpu.iq.vec_inst_queue_reads                  0                       # Number of vector instruction queue reads
system.cpu.iq.vec_inst_queue_writes                 0                       # Number of vector instruction queue writes
system.cpu.iq.vec_inst_queue_wakeup_accesses            0                       # Number of vector instruction queue wakeup accesses
system.cpu.iq.int_alu_accesses                  21400                       # Number of integer alu accesses
system.cpu.iq.fp_alu_accesses                    2896                       # Number of floating point alu accesses
system.cpu.iq.vec_alu_accesses                      0                       # Number of vector alu accesses
system.cpu.iew.lsq.thread0.forwLoads               45                       # Number of loads that had data forwarded from stores
system.cpu.iew.lsq.thread0.invAddrLoads             0                       # Number of loads ignored due to an invalid address
system.cpu.iew.lsq.thread0.squashedLoads         1343                       # Number of loads squashed
system.cpu.iew.lsq.thread0.ignoredResponses            2                       # Number of memory responses ignored because the instruction is squashed
system.cpu.iew.lsq.thread0.memOrderViolation            3                       # Number of memory ordering violations
system.cpu.iew.lsq.thread0.squashedStores          820                       # Number of stores squashed
system.cpu.iew.lsq.thread0.invAddrSwpfs             0                       # Number of software prefetches ignored due to an invalid address
system.cpu.iew.lsq.thread0.blockedLoads             0                       # Number of blocked loads due to partial load-store forwarding
system.cpu.iew.lsq.thread0.rescheduledLoads            1                       # Number of loads that were rescheduled
system.cpu.iew.lsq.thread0.cacheBlocked            15                       # Number of times an access to memory failed due to the cache being blocked
system.cpu.iew.iewIdleCycles                        0                       # Number of cycles IEW is idle
system.cpu.iew.iewSquashCycles                    924                       # Number of cycles IEW is squashing
system.cpu.iew.iewBlockCycles                    1205                       # Number of cycles IEW is blocking
system.cpu.iew.iewUnblockCycles                  1429                       # Number of cycles IEW is unblocking
system.cpu.iew.iewDispatchedInsts               26974                       # Number of instructions dispatched to IQ
system.cpu.iew.iewDispSquashedInsts               762                       # Number of squashed instructions skipped by dispatch
system.cpu.iew.iewDispLoadInsts                  2838                       # Number of dispatched load instructions
system.cpu.iew.iewDispStoreInsts                 2354                       # Number of dispatched store instructions
system.cpu.iew.iewDispNonSpecInsts                 37                       # Number of dispatched non-speculative instructions
system.cpu.iew.iewIQFullEvents                     12                       # Number of times the IQ has become full, causing a stall
system.cpu.iew.iewLSQFullEvents                  1404                       # Number of times the LSQ has become full, causing a stall
system.cpu.iew.memOrderViolationEvents              3                       # Number of memory order violations
system.cpu.iew.predictedTakenIncorrect            167                       # Number of branches that were predicted taken incorrectly
system.cpu.iew.predictedNotTakenIncorrect          881                       # Number of branches that were predicted not taken incorrectly
system.cpu.iew.branchMispredicts                 1048                       # Number of branch mispredicts detected at execute
system.cpu.iew.iewExecutedInsts                 21659                       # Number of executed instructions
system.cpu.iew.iewExecLoadInsts                  2223                       # Number of load instructions executed
system.cpu.iew.iewExecSquashedInsts              1936                       # Number of squashed instructions skipped in execute
system.cpu.iew.exec_swp                             0                       # number of swp insts executed
system.cpu.iew.exec_nop                             0                       # number of nop insts executed
system.cpu.iew.exec_refs                         4035                       # number of memory reference insts executed
system.cpu.iew.exec_branches                     1899                       # Number of branches executed
system.cpu.iew.exec_stores                       1812                       # Number of stores executed
system.cpu.iew.exec_rate                     0.229628                       # Inst execution rate
system.cpu.iew.wb_sent                          21388                       # cumulative count of insts sent to commit
system.cpu.iew.wb_count                         21115                       # cumulative count of insts written-back
system.cpu.iew.wb_producers                     14462                       # num instructions producing a value
system.cpu.iew.wb_consumers                     22234                       # num instructions consuming a value
system.cpu.iew.wb_rate                       0.223861                       # insts written-back per cycle
system.cpu.iew.wb_fanout                     0.650445                       # average fanout of values written-back
system.cpu.commit.commitSquashedInsts           10223                       # The number of squashed insts skipped by commit
system.cpu.commit.commitNonSpecStalls              11                       # The number of times commit has been forced to stall to communicate backwards
system.cpu.commit.branchMispredicts               921                       # The number of times a branch was mispredicted
system.cpu.commit.committed_per_cycle::samples        65916                       # Number of insts commited each cycle
system.cpu.commit.committed_per_cycle::mean     0.237014                       # Number of insts commited each cycle
system.cpu.commit.committed_per_cycle::stdev     0.602281                       # Number of insts commited each cycle
system.cpu.commit.committed_per_cycle::underflows            0      0.00%      0.00% # Number of insts commited each cycle
system.cpu.commit.committed_per_cycle::0        56288     85.39%     85.39% # Number of insts commited each cycle
system.cpu.commit.committed_per_cycle::1         3633      5.51%     90.91% # Number of insts commited each cycle
system.cpu.commit.committed_per_cycle::2         5995      9.09%    100.00% # Number of insts commited each cycle
system.cpu.commit.committed_per_cycle::overflows            0      0.00%    100.00% # Number of insts commited each cycle
system.cpu.commit.committed_per_cycle::min_value            0                       # Number of insts commited each cycle
system.cpu.commit.committed_per_cycle::max_value            2                       # Number of insts commited each cycle
system.cpu.commit.committed_per_cycle::total        65916                       # Number of insts commited each cycle
system.cpu.commit.committedInsts                 7741                       # Number of instructions committed
system.cpu.commit.committedOps                  15623                       # Number of ops (including micro ops) committed
system.cpu.commit.swp_count                         0                       # Number of s/w prefetches committed
system.cpu.commit.refs                           3029                       # Number of memory references committed
system.cpu.commit.loads                          1495                       # Number of loads committed
system.cpu.commit.membars                           0                       # Number of memory barriers committed
system.cpu.commit.branches                       1557                       # Number of branches committed
system.cpu.commit.vec_insts                         0                       # Number of committed Vector instructions.
system.cpu.commit.fp_insts                       2171                       # Number of committed floating point instructions.
system.cpu.commit.int_insts                     13976                       # Number of committed integer instructions.
system.cpu.commit.function_calls                  153                       # Number of function calls committed.
system.cpu.commit.op_class_0::No_OpClass          110      0.70%      0.70% # Class of committed instruction
system.cpu.commit.op_class_0::IntAlu            11338     72.57%     73.28% # Class of committed instruction
system.cpu.commit.op_class_0::IntMult               4      0.03%     73.30% # Class of committed instruction
system.cpu.commit.op_class_0::IntDiv               28      0.18%     73.48% # Class of committed instruction
system.cpu.commit.op_class_0::FloatAdd             12      0.08%     73.56% # Class of committed instruction
system.cpu.commit.op_class_0::FloatCmp              0      0.00%     73.56% # Class of committed instruction
system.cpu.commit.op_class_0::FloatCvt              0      0.00%     73.56% # Class of committed instruction
system.cpu.commit.op_class_0::FloatMult             0      0.00%     73.56% # Class of committed instruction
system.cpu.commit.op_class_0::FloatMultAcc            0      0.00%     73.56% # Class of committed instruction
system.cpu.commit.op_class_0::FloatDiv              0      0.00%     73.56% # Class of committed instruction
system.cpu.commit.op_class_0::FloatMisc             0      0.00%     73.56% # Class of committed instruction
system.cpu.commit.op_class_0::FloatSqrt             0      0.00%     73.56% # Class of committed instruction
system.cpu.commit.op_class_0::SimdAdd             374      2.39%     75.95% # Class of committed instruction
system.cpu.commit.op_class_0::SimdAddAcc            0      0.00%     75.95% # Class of committed instruction
system.cpu.commit.op_class_0::SimdAlu              98      0.63%     76.58% # Class of committed instruction
system.cpu.commit.op_class_0::SimdCmp               6      0.04%     76.62% # Class of committed instruction
system.cpu.commit.op_class_0::SimdCvt             164      1.05%     77.67% # Class of committed instruction
system.cpu.commit.op_class_0::SimdMisc            274      1.75%     79.42% # Class of committed instruction
system.cpu.commit.op_class_0::SimdMult              0      0.00%     79.42% # Class of committed instruction
system.cpu.commit.op_class_0::SimdMultAcc            0      0.00%     79.42% # Class of committed instruction
system.cpu.commit.op_class_0::SimdShift           186      1.19%     80.61% # Class of committed instruction
system.cpu.commit.op_class_0::SimdShiftAcc            0      0.00%     80.61% # Class of committed instruction
system.cpu.commit.op_class_0::SimdSqrt              0      0.00%     80.61% # Class of committed instruction
system.cpu.commit.op_class_0::SimdFloatAdd            0      0.00%     80.61% # Class of committed instruction
system.cpu.commit.op_class_0::SimdFloatAlu            0      0.00%     80.61% # Class of committed instruction
system.cpu.commit.op_class_0::SimdFloatCmp            0      0.00%     80.61% # Class of committed instruction
system.cpu.commit.op_class_0::SimdFloatCvt            0      0.00%     80.61% # Class of committed instruction
system.cpu.commit.op_class_0::SimdFloatDiv            0      0.00%     80.61% # Class of committed instruction
system.cpu.commit.op_class_0::SimdFloatMisc            0      0.00%     80.61% # Class of committed instruction
system.cpu.commit.op_class_0::SimdFloatMult            0      0.00%     80.61% # Class of committed instruction
system.cpu.commit.op_class_0::SimdFloatMultAcc            0      0.00%     80.61% # Class of committed instruction
system.cpu.commit.op_class_0::SimdFloatSqrt            0      0.00%     80.61% # Class of committed instruction
system.cpu.commit.op_class_0::SimdAes               0      0.00%     80.61% # Class of committed instruction
system.cpu.commit.op_class_0::SimdAesMix            0      0.00%     80.61% # Class of committed instruction
system.cpu.commit.op_class_0::SimdSha1Hash            0      0.00%     80.61% # Class of committed instruction
system.cpu.commit.op_class_0::SimdSha1Hash2            0      0.00%     80.61% # Class of committed instruction
system.cpu.commit.op_class_0::SimdSha256Hash            0      0.00%     80.61% # Class of committed instruction
system.cpu.commit.op_class_0::SimdSha256Hash2            0      0.00%     80.61% # Class of committed instruction
system.cpu.commit.op_class_0::SimdShaSigma2            0      0.00%     80.61% # Class of committed instruction
system.cpu.commit.op_class_0::SimdShaSigma3            0      0.00%     80.61% # Class of committed instruction
system.cpu.commit.op_class_0::MemRead            1381      8.84%     89.45% # Class of committed instruction
system.cpu.commit.op_class_0::MemWrite           1113      7.12%     96.58% # Class of committed instruction
system.cpu.commit.op_class_0::FloatMemRead          114      0.73%     97.31% # Class of committed instruction
system.cpu.commit.op_class_0::FloatMemWrite          421      2.69%    100.00% # Class of committed instruction
system.cpu.commit.op_class_0::IprAccess             0      0.00%    100.00% # Class of committed instruction
system.cpu.commit.op_class_0::InstPrefetch            0      0.00%    100.00% # Class of committed instruction
system.cpu.commit.op_class_0::total             15623                       # Class of committed instruction
system.cpu.commit.bw_lim_events                  5995                       # number cycles where commit BW limit reached
system.cpu.rob.rob_reads                        85767                       # The number of ROB reads
system.cpu.rob.rob_writes                       52879                       # The number of ROB writes
system.cpu.timesIdled                             318                       # Number of times that the entire CPU went into an idle state and unscheduled itself
system.cpu.idleCycles                           27221                       # Total number of cycles that the CPU has spent unscheduled due to idling
system.cpu.committedInsts                        7741                       # Number of Instructions Simulated
system.cpu.committedOps                         15623                       # Number of Ops (including micro ops) Simulated
system.cpu.cpi                              12.184731                       # CPI: Cycles Per Instruction
system.cpu.cpi_total                        12.184731                       # CPI: Total CPI of All Threads
system.cpu.ipc                               0.082070                       # IPC: Instructions Per Cycle
system.cpu.ipc_total                         0.082070                       # IPC: Total IPC of All Threads
system.cpu.int_regfile_reads                    27509                       # number of integer regfile reads
system.cpu.int_regfile_writes                   15721                       # number of integer regfile writes
system.cpu.fp_regfile_reads                      4133                       # number of floating regfile reads
system.cpu.fp_regfile_writes                     1662                       # number of floating regfile writes
system.cpu.cc_regfile_reads                      9387                       # number of cc regfile reads
system.cpu.cc_regfile_writes                     5631                       # number of cc regfile writes
system.cpu.misc_regfile_reads                    9000                       # number of misc regfile reads
system.cpu.dcache.tags.pwrStateResidencyTicks::UNDEFINED     47160500                       # Cumulative time (in ticks) in various power states
system.cpu.dcache.tags.tagsinuse           147.279039                       # Cycle average of tags in use
system.cpu.dcache.tags.total_refs                3510                       # Total number of references to valid blocks.
system.cpu.dcache.tags.sampled_refs               255                       # Sample count of references to valid blocks.
system.cpu.dcache.tags.avg_refs             13.764706                       # Average number of references to valid blocks.
system.cpu.dcache.tags.warmup_cycle            170000                       # Cycle when the warmup percentage was hit.
system.cpu.dcache.tags.occ_blocks::.cpu.data   147.279039                       # Average occupied blocks per requestor
system.cpu.dcache.tags.occ_percent::.cpu.data     0.287654                       # Average percentage of cache occupancy
system.cpu.dcache.tags.occ_percent::total     0.287654                       # Average percentage of cache occupancy
system.cpu.dcache.tags.occ_task_id_blocks::1024          255                       # Occupied blocks per task id
system.cpu.dcache.tags.age_task_id_blocks_1024::0           32                       # Occupied blocks per task id
system.cpu.dcache.tags.age_task_id_blocks_1024::1          223                       # Occupied blocks per task id
system.cpu.dcache.tags.occ_task_id_percent::1024     0.498047                       # Percentage of cache occupancy per task id
system.cpu.dcache.tags.tag_accesses             29351                       # Number of tag accesses
system.cpu.dcache.tags.data_accesses            29351                       # Number of data accesses
system.cpu.dcache.pwrStateResidencyTicks::UNDEFINED     47160500                       # Cumulative time (in ticks) in various power states
system.cpu.dcache.ReadReq_hits::.cpu.data         1852                       # number of ReadReq hits
system.cpu.dcache.ReadReq_hits::total            1852                       # number of ReadReq hits
system.cpu.dcache.WriteReq_hits::.cpu.data         1403                       # number of WriteReq hits
system.cpu.dcache.WriteReq_hits::total           1403                       # number of WriteReq hits
system.cpu.dcache.demand_hits::.cpu.data         3255                       # number of demand (read+write) hits
system.cpu.dcache.demand_hits::total             3255                       # number of demand (read+write) hits
system.cpu.dcache.overall_hits::.cpu.data         3255                       # number of overall hits
system.cpu.dcache.overall_hits::total            3255                       # number of overall hits
system.cpu.dcache.ReadReq_misses::.cpu.data          251                       # number of ReadReq misses
system.cpu.dcache.ReadReq_misses::total           251                       # number of ReadReq misses
system.cpu.dcache.WriteReq_misses::.cpu.data          131                       # number of WriteReq misses
system.cpu.dcache.WriteReq_misses::total          131                       # number of WriteReq misses
system.cpu.dcache.demand_misses::.cpu.data          382                       # number of demand (read+write) misses
system.cpu.dcache.demand_misses::total            382                       # number of demand (read+write) misses
system.cpu.dcache.overall_misses::.cpu.data          382                       # number of overall misses
system.cpu.dcache.overall_misses::total           382                       # number of overall misses
system.cpu.dcache.ReadReq_miss_latency::.cpu.data     19406500                       # number of ReadReq miss cycles
system.cpu.dcache.ReadReq_miss_latency::total     19406500                       # number of ReadReq miss cycles
system.cpu.dcache.WriteReq_miss_latency::.cpu.data     11009500                       # number of WriteReq miss cycles
system.cpu.dcache.WriteReq_miss_latency::total     11009500                       # number of WriteReq miss cycles
system.cpu.dcache.demand_miss_latency::.cpu.data     30416000                       # number of demand (read+write) miss cycles
system.cpu.dcache.demand_miss_latency::total     30416000                       # number of demand (read+write) miss cycles
system.cpu.dcache.overall_miss_latency::.cpu.data     30416000                       # number of overall miss cycles
system.cpu.dcache.overall_miss_latency::total     30416000                       # number of overall miss cycles
system.cpu.dcache.ReadReq_accesses::.cpu.data         2103                       # number of ReadReq accesses(hits+misses)
system.cpu.dcache.ReadReq_accesses::total         2103                       # number of ReadReq accesses(hits+misses)
system.cpu.dcache.WriteReq_accesses::.cpu.data         1534                       # number of WriteReq accesses(hits+misses)
system.cpu.dcache.WriteReq_accesses::total         1534                       # number of WriteReq accesses(hits+misses)
system.cpu.dcache.demand_accesses::.cpu.data         3637                       # number of demand (read+write) accesses
system.cpu.dcache.demand_accesses::total         3637                       # number of demand (read+write) accesses
system.cpu.dcache.overall_accesses::.cpu.data         3637                       # number of overall (read+write) accesses
system.cpu.dcache.overall_accesses::total         3637                       # number of overall (read+write) accesses
system.cpu.dcache.ReadReq_miss_rate::.cpu.data     0.119353                       # miss rate for ReadReq accesses
system.cpu.dcache.ReadReq_miss_rate::total     0.119353                       # miss rate for ReadReq accesses
system.cpu.dcache.WriteReq_miss_rate::.cpu.data     0.085398                       # miss rate for WriteReq accesses
system.cpu.dcache.WriteReq_miss_rate::total     0.085398                       # miss rate for WriteReq accesses
system.cpu.dcache.demand_miss_rate::.cpu.data     0.105032                       # miss rate for demand accesses
system.cpu.dcache.demand_miss_rate::total     0.105032                       # miss rate for demand accesses
system.cpu.dcache.overall_miss_rate::.cpu.data     0.105032                       # miss rate for overall accesses
system.cpu.dcache.overall_miss_rate::total     0.105032                       # miss rate for overall accesses
system.cpu.dcache.ReadReq_avg_miss_latency::.cpu.data 77316.733068                       # average ReadReq miss latency
system.cpu.dcache.ReadReq_avg_miss_latency::total 77316.733068                       # average ReadReq miss latency
system.cpu.dcache.WriteReq_avg_miss_latency::.cpu.data 84041.984733                       # average WriteReq miss latency
system.cpu.dcache.WriteReq_avg_miss_latency::total 84041.984733                       # average WriteReq miss latency
system.cpu.dcache.demand_avg_miss_latency::.cpu.data 79623.036649                       # average overall miss latency
system.cpu.dcache.demand_avg_miss_latency::total 79623.036649                       # average overall miss latency
system.cpu.dcache.overall_avg_miss_latency::.cpu.data 79623.036649                       # average overall miss latency
system.cpu.dcache.overall_avg_miss_latency::total 79623.036649                       # average overall miss latency
[...]
system.l3bus.snoop_fanout::1                        0      0.00%    100.00% # Request fanout histogram
system.l3bus.snoop_fanout::overflows                0      0.00%    100.00% # Request fanout histogram
system.l3bus.snoop_fanout::min_value                0                       # Request fanout histogram
system.l3bus.snoop_fanout::max_value                0                       # Request fanout histogram
system.l3bus.snoop_fanout::total                  775                       # Request fanout histogram
system.l3bus.reqLayer0.occupancy               387500                       # Layer occupancy (ticks)
system.l3bus.reqLayer0.utilization                0.8                       # Layer utilization (%)
system.l3bus.respLayer0.occupancy             1937500                       # Layer occupancy (ticks)
system.l3bus.respLayer0.utilization               4.1                       # Layer utilization (%)
system.l3cache.tags.pwrStateResidencyTicks::UNDEFINED     47160500                       # Cumulative time (in ticks) in various power states
system.l3cache.tags.tagsinuse              397.918584                       # Cycle average of tags in use
system.l3cache.tags.total_refs                    775                       # Total number of references to valid blocks.
system.l3cache.tags.sampled_refs                  775                       # Sample count of references to valid blocks.
system.l3cache.tags.avg_refs                        1                       # Average number of references to valid blocks.
system.l3cache.tags.warmup_cycle                76000                       # Cycle when the warmup percentage was hit.
system.l3cache.tags.occ_blocks::.cpu.inst   251.298699                       # Average occupied blocks per requestor
system.l3cache.tags.occ_blocks::.cpu.data   146.619885                       # Average occupied blocks per requestor
system.l3cache.tags.occ_percent::.cpu.inst     0.007669                       # Average percentage of cache occupancy
system.l3cache.tags.occ_percent::.cpu.data     0.004474                       # Average percentage of cache occupancy
system.l3cache.tags.occ_percent::total       0.012144                       # Average percentage of cache occupancy
system.l3cache.tags.occ_task_id_blocks::1024          775                       # Occupied blocks per task id
system.l3cache.tags.age_task_id_blocks_1024::0          152                       # Occupied blocks per task id
system.l3cache.tags.age_task_id_blocks_1024::1          623                       # Occupied blocks per task id
system.l3cache.tags.occ_task_id_percent::1024     0.023651                       # Percentage of cache occupancy per task id
system.l3cache.tags.tag_accesses                13175                       # Number of tag accesses
system.l3cache.tags.data_accesses               13175                       # Number of data accesses
system.l3cache.pwrStateResidencyTicks::UNDEFINED     47160500                       # Cumulative time (in ticks) in various power states
system.l3cache.ReadExReq_misses::.cpu.data          129                       # number of ReadExReq misses
system.l3cache.ReadExReq_misses::total            129                       # number of ReadExReq misses
system.l3cache.ReadSharedReq_misses::.cpu.inst          523                       # number of ReadSharedReq misses
system.l3cache.ReadSharedReq_misses::.cpu.data          123                       # number of ReadSharedReq misses
system.l3cache.ReadSharedReq_misses::total          646                       # number of ReadSharedReq misses
system.l3cache.demand_misses::.cpu.inst           523                       # number of demand (read+write) misses
system.l3cache.demand_misses::.cpu.data           252                       # number of demand (read+write) misses
system.l3cache.demand_misses::total               775                       # number of demand (read+write) misses
system.l3cache.overall_misses::.cpu.inst          523                       # number of overall misses
system.l3cache.overall_misses::.cpu.data          252                       # number of overall misses
system.l3cache.overall_misses::total              775                       # number of overall misses
system.l3cache.ReadExReq_miss_latency::.cpu.data      9125500                       # number of ReadExReq miss cycles
system.l3cache.ReadExReq_miss_latency::total      9125500                       # number of ReadExReq miss cycles
system.l3cache.ReadSharedReq_miss_latency::.cpu.inst     36743500                       # number of ReadSharedReq miss cycles
system.l3cache.ReadSharedReq_miss_latency::.cpu.data      8837500                       # number of ReadSharedReq miss cycles
system.l3cache.ReadSharedReq_miss_latency::total     45581000                       # number of ReadSharedReq miss cycles
system.l3cache.demand_miss_latency::.cpu.inst     36743500                       # number of demand (read+write) miss cycles
system.l3cache.demand_miss_latency::.cpu.data     17963000                       # number of demand (read+write) miss cycles
system.l3cache.demand_miss_latency::total     54706500                       # number of demand (read+write) miss cycles
system.l3cache.overall_miss_latency::.cpu.inst     36743500                       # number of overall miss cycles
system.l3cache.overall_miss_latency::.cpu.data     17963000                       # number of overall miss cycles
system.l3cache.overall_miss_latency::total     54706500                       # number of overall miss cycles
system.l3cache.ReadExReq_accesses::.cpu.data          129                       # number of ReadExReq accesses(hits+misses)
system.l3cache.ReadExReq_accesses::total          129                       # number of ReadExReq accesses(hits+misses)
system.l3cache.ReadSharedReq_accesses::.cpu.inst          523                       # number of ReadSharedReq accesses(hits+misses)
system.l3cache.ReadSharedReq_accesses::.cpu.data          123                       # number of ReadSharedReq accesses(hits+misses)
system.l3cache.ReadSharedReq_accesses::total          646                       # number of ReadSharedReq accesses(hits+misses)
system.l3cache.demand_accesses::.cpu.inst          523                       # number of demand (read+write) accesses
system.l3cache.demand_accesses::.cpu.data          252                       # number of demand (read+write) accesses
system.l3cache.demand_accesses::total             775                       # number of demand (read+write) accesses
system.l3cache.overall_accesses::.cpu.inst          523                       # number of overall (read+write) accesses
system.l3cache.overall_accesses::.cpu.data          252                       # number of overall (read+write) accesses
system.l3cache.overall_accesses::total            775                       # number of overall (read+write) accesses
system.l3cache.ReadExReq_miss_rate::.cpu.data            1                       # miss rate for ReadExReq accesses
system.l3cache.ReadExReq_miss_rate::total            1                       # miss rate for ReadExReq accesses
system.l3cache.ReadSharedReq_miss_rate::.cpu.inst            1                       # miss rate for ReadSharedReq accesses
system.l3cache.ReadSharedReq_miss_rate::.cpu.data            1                       # miss rate for ReadSharedReq accesses
system.l3cache.ReadSharedReq_miss_rate::total            1                       # miss rate for ReadSharedReq accesses
system.l3cache.demand_miss_rate::.cpu.inst            1                       # miss rate for demand accesses
system.l3cache.demand_miss_rate::.cpu.data            1                       # miss rate for demand accesses
system.l3cache.demand_miss_rate::total              1                       # miss rate for demand accesses
system.l3cache.overall_miss_rate::.cpu.inst            1                       # miss rate for overall accesses
system.l3cache.overall_miss_rate::.cpu.data            1                       # miss rate for overall accesses
system.l3cache.overall_miss_rate::total             1                       # miss rate for overall accesses
system.l3cache.ReadExReq_avg_miss_latency::.cpu.data 70740.310078                       # average ReadExReq miss latency
system.l3cache.ReadExReq_avg_miss_latency::total 70740.310078                       # average ReadExReq miss latency
system.l3cache.ReadSharedReq_avg_miss_latency::.cpu.inst 70255.258126                       # average ReadSharedReq miss latency
system.l3cache.ReadSharedReq_avg_miss_latency::.cpu.data 71849.593496                       # average ReadSharedReq miss latency
system.l3cache.ReadSharedReq_avg_miss_latency::total 70558.823529                       # average ReadSharedReq miss latency
system.l3cache.demand_avg_miss_latency::.cpu.inst 70255.258126                       # average overall miss latency
system.l3cache.demand_avg_miss_latency::.cpu.data 71281.746032                       # average overall miss latency
system.l3cache.demand_avg_miss_latency::total 70589.032258                       # average overall miss latency
system.l3cache.overall_avg_miss_latency::.cpu.inst 70255.258126                       # average overall miss latency
system.l3cache.overall_avg_miss_latency::.cpu.data 71281.746032                       # average overall miss latency
system.l3cache.overall_avg_miss_latency::total 70589.032258                       # average overall miss latency
system.l3cache.blocked_cycles::no_mshrs             0                       # number of cycles access was blocked
system.l3cache.blocked_cycles::no_targets            0                       # number of cycles access was blocked
system.l3cache.blocked::no_mshrs                    0                       # number of cycles access was blocked
system.l3cache.blocked::no_targets                  0                       # number of cycles access was blocked
system.l3cache.avg_blocked_cycles::no_mshrs          nan                       # average number of cycles each access was blocked
system.l3cache.avg_blocked_cycles::no_targets          nan                       # average number of cycles each access was blocked
system.l3cache.ReadExReq_mshr_misses::.cpu.data          129                       # number of ReadExReq MSHR misses
system.l3cache.ReadExReq_mshr_misses::total          129                       # number of ReadExReq MSHR misses
system.l3cache.ReadSharedReq_mshr_misses::.cpu.inst          523                       # number of ReadSharedReq MSHR misses
system.l3cache.ReadSharedReq_mshr_misses::.cpu.data          123                       # number of ReadSharedReq MSHR misses
system.l3cache.ReadSharedReq_mshr_misses::total          646                       # number of ReadSharedReq MSHR misses
system.l3cache.demand_mshr_misses::.cpu.inst          523                       # number of demand (read+write) MSHR misses
system.l3cache.demand_mshr_misses::.cpu.data          252                       # number of demand (read+write) MSHR misses
system.l3cache.demand_mshr_misses::total          775                       # number of demand (read+write) MSHR misses
system.l3cache.overall_mshr_misses::.cpu.inst          523                       # number of overall MSHR misses
system.l3cache.overall_mshr_misses::.cpu.data          252                       # number of overall MSHR misses
system.l3cache.overall_mshr_misses::total          775                       # number of overall MSHR misses
system.l3cache.ReadExReq_mshr_miss_latency::.cpu.data      8867500                       # number of ReadExReq MSHR miss cycles
system.l3cache.ReadExReq_mshr_miss_latency::total      8867500                       # number of ReadExReq MSHR miss cycles
system.l3cache.ReadSharedReq_mshr_miss_latency::.cpu.inst     35697500                       # number of ReadSharedReq MSHR miss cycles
system.l3cache.ReadSharedReq_mshr_miss_latency::.cpu.data      8591500                       # number of ReadSharedReq MSHR miss cycles
system.l3cache.ReadSharedReq_mshr_miss_latency::total     44289000                       # number of ReadSharedReq MSHR miss cycles
system.l3cache.demand_mshr_miss_latency::.cpu.inst     35697500                       # number of demand (read+write) MSHR miss cycles
system.l3cache.demand_mshr_miss_latency::.cpu.data     17459000                       # number of demand (read+write) MSHR miss cycles
system.l3cache.demand_mshr_miss_latency::total     53156500                       # number of demand (read+write) MSHR miss cycles
system.l3cache.overall_mshr_miss_latency::.cpu.inst     35697500                       # number of overall MSHR miss cycles
system.l3cache.overall_mshr_miss_latency::.cpu.data     17459000                       # number of overall MSHR miss cycles
system.l3cache.overall_mshr_miss_latency::total     53156500                       # number of overall MSHR miss cycles
system.l3cache.ReadExReq_mshr_miss_rate::.cpu.data            1                       # mshr miss rate for ReadExReq accesses
system.l3cache.ReadExReq_mshr_miss_rate::total            1                       # mshr miss rate for ReadExReq accesses
system.l3cache.ReadSharedReq_mshr_miss_rate::.cpu.inst            1                       # mshr miss rate for ReadSharedReq accesses
system.l3cache.ReadSharedReq_mshr_miss_rate::.cpu.data            1                       # mshr miss rate for ReadSharedReq accesses
system.l3cache.ReadSharedReq_mshr_miss_rate::total            1                       # mshr miss rate for ReadSharedReq accesses
system.l3cache.demand_mshr_miss_rate::.cpu.inst            1                       # mshr miss rate for demand accesses
system.l3cache.demand_mshr_miss_rate::.cpu.data            1                       # mshr miss rate for demand accesses
system.l3cache.demand_mshr_miss_rate::total            1                       # mshr miss rate for demand accesses
system.l3cache.overall_mshr_miss_rate::.cpu.inst            1                       # mshr miss rate for overall accesses
system.l3cache.overall_mshr_miss_rate::.cpu.data            1                       # mshr miss rate for overall accesses
system.l3cache.overall_mshr_miss_rate::total            1                       # mshr miss rate for overall accesses
system.l3cache.ReadExReq_avg_mshr_miss_latency::.cpu.data 68740.310078                       # average ReadExReq mshr miss latency
system.l3cache.ReadExReq_avg_mshr_miss_latency::total 68740.310078                       # average ReadExReq mshr miss latency
system.l3cache.ReadSharedReq_avg_mshr_miss_latency::.cpu.inst 68255.258126                       # average ReadSharedReq mshr miss latency
system.l3cache.ReadSharedReq_avg_mshr_miss_latency::.cpu.data 69849.593496                       # average ReadSharedReq mshr miss latency
system.l3cache.ReadSharedReq_avg_mshr_miss_latency::total 68558.823529                       # average ReadSharedReq mshr miss latency
system.l3cache.demand_avg_mshr_miss_latency::.cpu.inst 68255.258126                       # average overall mshr miss latency
system.l3cache.demand_avg_mshr_miss_latency::.cpu.data 69281.746032                       # average overall mshr miss latency
system.l3cache.demand_avg_mshr_miss_latency::total 68589.032258                       # average overall mshr miss latency
system.l3cache.overall_avg_mshr_miss_latency::.cpu.inst 68255.258126                       # average overall mshr miss latency
system.l3cache.overall_avg_mshr_miss_latency::.cpu.data 69281.746032                       # average overall mshr miss latency
system.l3cache.overall_avg_mshr_miss_latency::total 68589.032258                       # average overall mshr miss latency
system.l3cache.replacements                         0                       # number of replacements
system.membus.snoop_filter.tot_requests           775                       # Total number of requests made to the snoop filter.
system.membus.snoop_filter.hit_single_requests            0                       # Number of requests hitting in the snoop filter with a single holder of the requested data.
system.membus.snoop_filter.hit_multi_requests            0                       # Number of requests hitting in the snoop filter with multiple (>1) holders of the requested data.
system.membus.snoop_filter.tot_snoops               0                       # Total number of snoops made to the snoop filter.
system.membus.snoop_filter.hit_single_snoops            0                       # Number of snoops hitting in the snoop filter with a single holder of the requested data.
system.membus.snoop_filter.hit_multi_snoops            0                       # Number of snoops hitting in the snoop filter with multiple (>1) holders of the requested data.
system.membus.pwrStateResidencyTicks::UNDEFINED     47160500                       # Cumulative time (in ticks) in various power states
system.membus.trans_dist::ReadResp                646                       # Transaction distribution
system.membus.trans_dist::ReadExReq               129                       # Transaction distribution
system.membus.trans_dist::ReadExResp              129                       # Transaction distribution
system.membus.trans_dist::ReadSharedReq           646                       # Transaction distribution
system.membus.pkt_count_system.l3cache.mem_side::system.mem_ctrl.port         1550                       # Packet count per connected master and slave (bytes)
system.membus.pkt_count_system.l3cache.mem_side::total         1550                       # Packet count per connected master and slave (bytes)
system.membus.pkt_count::total                   1550                       # Packet count per connected master and slave (bytes)
system.membus.pkt_size_system.l3cache.mem_side::system.mem_ctrl.port        49600                       # Cumulative packet size per connected master and slave (bytes)
system.membus.pkt_size_system.l3cache.mem_side::total        49600                       # Cumulative packet size per connected master and slave (bytes)
system.membus.pkt_size::total                   49600                       # Cumulative packet size per connected master and slave (bytes)
system.membus.snoops                                0                       # Total snoops (count)
system.membus.snoopTraffic                          0                       # Total snoop traffic (bytes)
system.membus.snoop_fanout::samples               775                       # Request fanout histogram
system.membus.snoop_fanout::mean                    0                       # Request fanout histogram
system.membus.snoop_fanout::stdev                   0                       # Request fanout histogram
system.membus.snoop_fanout::underflows              0      0.00%      0.00% # Request fanout histogram
system.membus.snoop_fanout::0                     775    100.00%    100.00% # Request fanout histogram
system.membus.snoop_fanout::1                       0      0.00%    100.00% # Request fanout histogram
system.membus.snoop_fanout::overflows               0      0.00%    100.00% # Request fanout histogram
system.membus.snoop_fanout::min_value               0                       # Request fanout histogram
system.membus.snoop_fanout::max_value               0                       # Request fanout histogram
system.membus.snoop_fanout::total                 775                       # Request fanout histogram
system.membus.reqLayer0.occupancy              387500                       # Layer occupancy (ticks)
system.membus.reqLayer0.utilization               0.8                       # Layer utilization (%)
system.membus.respLayer0.occupancy            2106250                       # Layer occupancy (ticks)
system.membus.respLayer0.utilization              4.5                       # Layer utilization (%)

---------- End Simulation Statistics   ----------