
---------- Begin Simulation Statistics ----------
sim_seconds                                  0.060812                       # Number of seconds simulated
sim_ticks                                 60811939000                       # Number of ticks simulated
final_tick                                60811939000                       # Number of ticks from beginning of simulation (restored from checkpoints and never reset)
sim_freq                                 1000000000000                       # Frequency of simulated ticks
host_inst_rate                                 277173                       # Simulator instruction rate (inst/s)
host_op_rate                                   514792                       # Simulator op (including micro ops) rate (op/s)
host_tick_rate                              198015641                       # Simulator tick rate (ticks/s)
host_mem_usage                                 661684                       # Number of bytes of host memory used
host_seconds                                   307.11                       # Real time elapsed on the host
sim_insts                                    85121742                       # Number of instructions simulated
sim_ops                                     158095973                       # Number of ops (including micro ops) simulated
system.clk_domain.voltage_domain.voltage            1                       # Voltage in Volts
system.clk_domain.clock                           500                       # Clock period in ticks
system.mem_ctrl.pwrStateResidencyTicks::UNDEFINED  60811939000                       # Cumulative time (in ticks) in various power states
system.mem_ctrl.bytes_read::.cpu.inst           51904                       # Number of bytes read from this memory
system.mem_ctrl.bytes_read::.cpu.data         1706944                       # Number of bytes read from this memory
system.mem_ctrl.bytes_read::total             1758848                       # Number of bytes read from this memory
system.mem_ctrl.bytes_inst_read::.cpu.inst        51904                       # Number of instructions bytes read from this memory
system.mem_ctrl.bytes_inst_read::total          51904                       # Number of instructions bytes read from this memory
system.mem_ctrl.num_reads::.cpu.inst              811                       # Number of read requests responded to by this memory
system.mem_ctrl.num_reads::.cpu.data            26671                       # Number of read requests responded to by this memory
system.mem_ctrl.num_reads::total                27482                       # Number of read requests responded to by this memory
system.mem_ctrl.bw_read::.cpu.inst             853517                       # Total read bandwidth from this memory (bytes/s)
system.mem_ctrl.bw_read::.cpu.data           28069225                       # Total read bandwidth from this memory (bytes/s)
system.mem_ctrl.bw_read::total               28922742                       # Total read bandwidth from this memory (bytes/s)
system.mem_ctrl.bw_inst_read::.cpu.inst        853517                       # Instruction read bandwidth from this memory (bytes/s)
system.mem_ctrl.bw_inst_read::total            853517                       # Instruction read bandwidth from this memory (bytes/s)
system.mem_ctrl.bw_total::.cpu.inst            853517                       # Total bandwidth to/from this memory (bytes/s)
system.mem_ctrl.bw_total::.cpu.data          28069225                       # Total bandwidth to/from this memory (bytes/s)
system.mem_ctrl.bw_total::total              28922742                       # Total bandwidth to/from this memory (bytes/s)
system.mem_ctrl.avgPriority_.cpu.inst::samples       811.00                       # Average QoS priority value for accepted requests
system.mem_ctrl.avgPriority_.cpu.data::samples     26671.00                       # Average QoS priority value for accepted requests
system.mem_ctrl.priorityMinLatency       0.000000018750                       # per QoS priority minimum request to response latency (s)
system.mem_ctrl.priorityMaxLatency       0.000001099750                       # per QoS priority maximum request to response latency (s)
system.mem_ctrl.numReadWriteTurnArounds             0                       # Number of turnarounds from READ to WRITE
system.mem_ctrl.numWriteReadTurnArounds             0                       # Number of turnarounds from WRITE to READ
system.mem_ctrl.numStayReadState                61875                       # Number of times bus staying in READ state
system.mem_ctrl.numStayWriteState                   0                       # Number of times bus staying in WRITE state
system.mem_ctrl.readReqs                        27482                       # Number of read requests accepted
system.mem_ctrl.writeReqs                           0                       # Number of write requests accepted
system.mem_ctrl.readBursts                      27482                       # Number of DRAM read bursts, including those serviced by the write queue
system.mem_ctrl.writeBursts                         0                       # Number of DRAM write bursts, including those merged in the write queue
system.mem_ctrl.bytesReadDRAM                 1758848                       # Total number of bytes read from DRAM
system.mem_ctrl.bytesReadWrQ                        0                       # Total number of bytes read from write queue
system.mem_ctrl.bytesWritten                        0                       # Total number of bytes written to DRAM
system.mem_ctrl.bytesReadSys                  1758848                       # Total read bytes from the system interface side
system.mem_ctrl.bytesWrittenSys                     0                       # Total written bytes from the system interface side
system.mem_ctrl.servicedByWrQ                       0                       # Number of DRAM read bursts serviced by the write queue
system.mem_ctrl.mergedWrBursts                      0                       # Number of DRAM write bursts merged with an existing one
system.mem_ctrl.neitherReadNorWriteReqs             0                       # Number of requests that are neither read nor write
system.mem_ctrl.perBankRdBursts::0               1867                       # Per bank write bursts
system.mem_ctrl.perBankRdBursts::1               1676                       # Per bank write bursts
system.mem_ctrl.perBankRdBursts::2               1656                       # Per bank write bursts
system.mem_ctrl.perBankRdBursts::3               1679                       # Per bank write bursts
system.mem_ctrl.perBankRdBursts::4               1691                       # Per bank write bursts
system.mem_ctrl.perBankRdBursts::5               1679                       # Per bank write bursts
system.mem_ctrl.perBankRdBursts::6               1738                       # Per bank write bursts
system.mem_ctrl.perBankRdBursts::7               1761                       # Per bank write bursts
system.mem_ctrl.perBankRdBursts::8               1695                       # Per bank write bursts
system.mem_ctrl.perBankRdBursts::9               1593                       # Per bank write bursts
system.mem_ctrl.perBankRdBursts::10              1679                       # Per bank write bursts
system.mem_ctrl.perBankRdBursts::11              1655                       # Per bank write bursts
system.mem_ctrl.perBankRdBursts::12              1668                       # Per bank write bursts
system.mem_ctrl.perBankRdBursts::13              1816                       # Per bank write bursts
system.mem_ctrl.perBankRdBursts::14              1858                       # Per bank write bursts
system.mem_ctrl.perBankRdBursts::15              1771                       # Per bank write bursts
system.mem_ctrl.perBankWrBursts::0                  0                       # Per bank write bursts
system.mem_ctrl.perBankWrBursts::1                  0                       # Per bank write bursts
system.mem_ctrl.perBankWrBursts::2                  0                       # Per bank write bursts
system.mem_ctrl.perBankWrBursts::3                  0                       # Per bank write bursts
system.mem_ctrl.perBankWrBursts::4                  0                       # Per bank write bursts
system.mem_ctrl.perBankWrBursts::5                  0                       # Per bank write bursts
system.mem_ctrl.perBankWrBursts::6                  0                       # Per bank write bursts
system.mem_ctrl.perBankWrBursts::7                  0                       # Per bank write bursts
system.mem_ctrl.perBankWrBursts::8                  0                       # Per bank write bursts
system.mem_ctrl.perBankWrBursts::9                  0                       # Per bank write bursts
system.mem_ctrl.perBankWrBursts::10                 0                       # Per bank write bursts
system.mem_ctrl.perBankWrBursts::11                 0                       # Per bank write bursts
system.mem_ctrl.perBankWrBursts::12                 0                       # Per bank write bursts
system.mem_ctrl.perBankWrBursts::13                 0                       # Per bank write bursts
system.mem_ctrl.perBankWrBursts::14                 0                       # Per bank write bursts
system.mem_ctrl.perBankWrBursts::15                 0                       # Per bank write bursts
system.mem_ctrl.numRdRetry                          0                       # Number of times read queue was full causing retry
system.mem_ctrl.numWrRetry                          0                       # Number of times write queue was full causing retry
system.mem_ctrl.totGap                    60811855500                       # Total gap between requests
system.mem_ctrl.readPktSize::0                      0                       # Read request sizes (log2)
system.mem_ctrl.readPktSize::1                      0                       # Read request sizes (log2)
system.mem_ctrl.readPktSize::2                      0                       # Read request sizes (log2)
system.mem_ctrl.readPktSize::3                      0                       # Read request sizes (log2)
system.mem_ctrl.readPktSize::4                      0                       # Read request sizes (log2)
system.mem_ctrl.readPktSize::5                      0                       # Read request sizes (log2)
system.mem_ctrl.readPktSize::6                  27482                       # Read request sizes (log2)
system.mem_ctrl.writePktSize::0                     0                       # Write request sizes (log2)
system.mem_ctrl.writePktSize::1                     0                       # Write request sizes (log2)
system.mem_ctrl.writePktSize::2                     0                       # Write request sizes (log2)
system.mem_ctrl.writePktSize::3                     0                       # Write request sizes (log2)
system.mem_ctrl.writePktSize::4                     0                       # Write request sizes (log2)
system.mem_ctrl.writePktSize::5                     0                       # Write request sizes (log2)
system.mem_ctrl.writePktSize::6                     0                       # Write request sizes (log2)
system.mem_ctrl.rdQLenPdf::0                    27099                       # What read queue length does an incoming req see
system.mem_ctrl.rdQLenPdf::1                      305                       # What read queue length does an incoming req see
system.mem_ctrl.rdQLenPdf::2                       65                       # What read queue length does an incoming req see
system.mem_ctrl.rdQLenPdf::3                       11                       # What read queue length does an incoming req see
system.mem_ctrl.rdQLenPdf::4                        1                       # What read queue length does an incoming req see
system.mem_ctrl.rdQLenPdf::5                        1                       # What read queue length does an incoming req see
system.mem_ctrl.rdQLenPdf::6                        0                       # What read queue length does an incoming req see
system.mem_ctrl.rdQLenPdf::7                        0                       # What read queue length does an incoming req see
system.mem_ctrl.rdQLenPdf::8                        0                       # What read queue length does an incoming req see
system.mem_ctrl.rdQLenPdf::9                        0                       # What read queue length does an incoming req see
system.mem_ctrl.rdQLenPdf::10                       0                       # What read queue length does an incoming req see
system.mem_ctrl.rdQLenPdf::11                       0                       # What read queue length does an incoming req see
system.mem_ctrl.rdQLenPdf::12                       0                       # What read queue length does an incoming req see
system.mem_ctrl.rdQLenPdf::13                       0                       # What read queue length does an incoming req see
system.mem_ctrl.rdQLenPdf::14                       0                       # What read queue length does an incoming req see
system.mem_ctrl.rdQLenPdf::15                       0                       # What read queue length does an incoming req see
system.mem_ctrl.rdQLenPdf::16                       0                       # What read queue length does an incoming req see
system.mem_ctrl.rdQLenPdf::17                       0                       # What read queue length does an incoming req see
system.mem_ctrl.rdQLenPdf::18                       0                       # What read queue length does an incoming req see
system.mem_ctrl.rdQLenPdf::19                       0                       # What read queue length does an incoming req see
system.mem_ctrl.rdQLenPdf::20                       0                       # What read queue length does an incoming req see
system.mem_ctrl.rdQLenPdf::21                       0                       # What read queue length does an incoming req see
system.mem_ctrl.rdQLenPdf::22                       0                       # What read queue length does an incoming req see
system.mem_ctrl.rdQLenPdf::23                       0                       # What read queue length does an incoming req see
system.mem_ctrl.rdQLenPdf::24                       0                       # What read queue length does an incoming req see
system.mem_ctrl.rdQLenPdf::25                       0                       # What read queue length does an incoming req see
system.mem_ctrl.rdQLenPdf::26                       0                       # What read queue length does an incoming req see
system.mem_ctrl.rdQLenPdf::27                       0                       # What read queue length does an incoming req see
system.mem_ctrl.rdQLenPdf::28                       0                       # What read queue length does an incoming req see
system.mem_ctrl.rdQLenPdf::29                       0                       # What read queue length does an incoming req see
system.mem_ctrl.rdQLenPdf::30                       0                       # What read queue length does an incoming req see
system.mem_ctrl.rdQLenPdf::31                       0                       # What read queue length does an incoming req see
system.mem_ctrl.wrQLenPdf::0                        0                       # What write queue length does an incoming req see
system.mem_ctrl.wrQLenPdf::1                        0                       # What write queue length does an incoming req see
system.mem_ctrl.wrQLenPdf::2                        0                       # What write queue length does an incoming req see
system.mem_ctrl.wrQLenPdf::3                        0                       # What write queue length does an incoming req see
system.mem_ctrl.wrQLenPdf::4                        0                       # What write queue length does an incoming req see
system.mem_ctrl.wrQLenPdf::5                        0                       # What write queue length does an incoming req see
system.mem_ctrl.wrQLenPdf::6                        0                       # What write queue length does an incoming req see
system.mem_ctrl.wrQLenPdf::7                        0                       # What write queue length does an incoming req see
system.mem_ctrl.wrQLenPdf::8                        0                       # What write queue length does an incoming req see
system.mem_ctrl.wrQLenPdf::9                        0                       # What write queue length does an incoming req see
system.mem_ctrl.wrQLenPdf::10                       0                       # What write queue length does an incoming req see
system.mem_ctrl.wrQLenPdf::11                       0                       # What write queue length does an incoming req see
system.mem_ctrl.wrQLenPdf::12                       0                       # What write queue length does an incoming req see
system.mem_ctrl.wrQLenPdf::13                       0                       # What write queue length does an incoming req see
system.mem_ctrl.wrQLenPdf::14                       0                       # What write queue length does an incoming req see
system.mem_ctrl.wrQLenPdf::15                       0                       # What write queue length does an incoming req see
system.mem_ctrl.wrQLenPdf::16                       0                       # What write queue length does an incoming req see
system.mem_ctrl.wrQLenPdf::17                       0                       # What write queue length does an incoming req see
system.mem_ctrl.wrQLenPdf::18                       0                       # What write queue length does an incoming req see
system.mem_ctrl.wrQLenPdf::19                       0                       # What write queue length does an incoming req see
system.mem_ctrl.wrQLenPdf::20                       0                       # What write queue length does an incoming req see
system.mem_ctrl.wrQLenPdf::21                       0                       # What write queue length does an incoming req see
system.mem_ctrl.wrQLenPdf::22                       0                       # What write queue length does an incoming req see
system.mem_ctrl.wrQLenPdf::23                       0                       # What write queue length does an incoming req see
system.mem_ctrl.wrQLenPdf::24                       0                       # What write queue length does an incoming req see
system.mem_ctrl.wrQLenPdf::25                       0                       # What write queue length does an incoming req see
system.mem_ctrl.wrQLenPdf::26                       0                       # What write queue length does an incoming req see
system.mem_ctrl.wrQLenPdf::27                       0                       # What write queue length does an incoming req see
system.mem_ctrl.wrQLenPdf::28                       0                       # What write queue length does an incoming req see
system.mem_ctrl.wrQLenPdf::29                       0                       # What write queue length does an incoming req see
system.mem_ctrl.wrQLenPdf::30                       0                       # What write queue length does an incoming req see
system.mem_ctrl.wrQLenPdf::31                       0                       # What write queue length does an incoming req see
system.mem_ctrl.wrQLenPdf::32                       0                       # What write queue length does an incoming req see
system.mem_ctrl.wrQLenPdf::33                       0                       # What write queue length does an incoming req see
system.mem_ctrl.wrQLenPdf::34                       0                       # What write queue length does an incoming req see
system.mem_ctrl.wrQLenPdf::35                       0                       # What write queue length does an incoming req see
system.mem_ctrl.wrQLenPdf::36                       0                       # What write queue length does an incoming req see
system.mem_ctrl.wrQLenPdf::37                       0                       # What write queue length does an incoming req see
system.mem_ctrl.wrQLenPdf::38                       0                       # What write queue length does an incoming req see
system.mem_ctrl.wrQLenPdf::39                       0                       # What write queue length does an incoming req see
system.mem_ctrl.wrQLenPdf::40                       0                       # What write queue length does an incoming req see
system.mem_ctrl.wrQLenPdf::41                       0                       # What write queue length does an incoming req see
system.mem_ctrl.wrQLenPdf::42                       0                       # What write queue length does an incoming req see
system.mem_ctrl.wrQLenPdf::43                       0                       # What write queue length does an incoming req see
system.mem_ctrl.wrQLenPdf::44                       0                       # What write queue length does an incoming req see
system.mem_ctrl.wrQLenPdf::45                       0                       # What write queue length does an incoming req see
system.mem_ctrl.wrQLenPdf::46                       0                       # What write queue length does an incoming req see
system.mem_ctrl.wrQLenPdf::47                       0                       # What write queue length does an incoming req see
system.mem_ctrl.wrQLenPdf::48                       0                       # What write queue length does an incoming req see
system.mem_ctrl.wrQLenPdf::49                       0                       # What write queue length does an incoming req see
system.mem_ctrl.wrQLenPdf::50                       0                       # What write queue length does an incoming req see
system.mem_ctrl.wrQLenPdf::51                       0                       # What write queue length does an incoming req see
system.mem_ctrl.wrQLenPdf::52                       0                       # What write queue length does an incoming req see
system.mem_ctrl.wrQLenPdf::53                       0                       # What write queue length does an incoming req see
system.mem_ctrl.wrQLenPdf::54                       0                       # What write queue length does an incoming req see
system.mem_ctrl.wrQLenPdf::55                       0                       # What write queue length does an incoming req see
system.mem_ctrl.wrQLenPdf::56                       0                       # What write queue length does an incoming req see
system.mem_ctrl.wrQLenPdf::57                       0                       # What write queue length does an incoming req see
system.mem_ctrl.wrQLenPdf::58                       0                       # What write queue length does an incoming req see
system.mem_ctrl.wrQLenPdf::59                       0                       # What write queue length does an incoming req see
system.mem_ctrl.wrQLenPdf::60                       0                       # What write queue length does an incoming req see
system.mem_ctrl.wrQLenPdf::61                       0                       # What write queue length does an incoming req see
system.mem_ctrl.wrQLenPdf::62                       0                       # What write queue length does an incoming req see
system.mem_ctrl.wrQLenPdf::63                       0                       # What write queue length does an incoming req see
system.mem_ctrl.bytesPerActivate::samples         7426                       # Bytes accessed per row activation
system.mem_ctrl.bytesPerActivate::mean     236.591435                       # Bytes accessed per row activation
system.mem_ctrl.bytesPerActivate::gmean    222.339556                       # Bytes accessed per row activation
system.mem_ctrl.bytesPerActivate::stdev     96.277754                       # Bytes accessed per row activation
system.mem_ctrl.bytesPerActivate::0-127           378      5.09%      5.09% # Bytes accessed per row activation
system.mem_ctrl.bytesPerActivate::128-255         2084     28.06%     33.15% # Bytes accessed per row activation
system.mem_ctrl.bytesPerActivate::256-383         4831     65.06%     98.21% # Bytes accessed per row activation
system.mem_ctrl.bytesPerActivate::384-511           26      0.35%     98.56% # Bytes accessed per row activation
system.mem_ctrl.bytesPerActivate::512-639           18      0.24%     98.80% # Bytes accessed per row activation
system.mem_ctrl.bytesPerActivate::640-767           10      0.13%     98.94% # Bytes accessed per row activation
system.mem_ctrl.bytesPerActivate::768-895            9      0.12%     99.06% # Bytes accessed per row activation
system.mem_ctrl.bytesPerActivate::896-1023            7      0.09%     99.15% # Bytes accessed per row activation
system.mem_ctrl.bytesPerActivate::1024-1151           63      0.85%    100.00% # Bytes accessed per row activation
system.mem_ctrl.bytesPerActivate::total          7426                       # Bytes accessed per row activation
system.mem_ctrl.masterReadBytes::.cpu.inst        51904                       # Per-master bytes read from memory
system.mem_ctrl.masterReadBytes::.cpu.data      1706944                       # Per-master bytes read from memory
system.mem_ctrl.masterReadRate::.cpu.inst 853516.609624961973                       # Per-master bytes read from memory rate (Bytes/sec)
system.mem_ctrl.masterReadRate::.cpu.data 28069225.025039900094                       # Per-master bytes read from memory rate (Bytes/sec)
system.mem_ctrl.masterReadAccesses::.cpu.inst          811                       # Per-master read serviced memory accesses
system.mem_ctrl.masterReadAccesses::.cpu.data        26671                       # Per-master read serviced memory accesses
system.mem_ctrl.masterReadTotalLat::.cpu.inst     32502750                       # Per-master read total memory access latency
system.mem_ctrl.masterReadTotalLat::.cpu.data    909259750                       # Per-master read total memory access latency
system.mem_ctrl.masterReadAvgLat::.cpu.inst     40077.37                       # Per-master read average memory access latency
system.mem_ctrl.masterReadAvgLat::.cpu.data     34091.70                       # Per-master read average memory access latency
system.mem_ctrl.totQLat                     426475000                       # Total ticks spent queuing
system.mem_ctrl.totMemAccLat                941762500                       # Total ticks spent from burst creation until serviced by the DRAM
system.mem_ctrl.totBusLat                   137410000                       # Total ticks spent in databus transfers
system.mem_ctrl.avgQLat                      15518.34                       # Average queueing delay per DRAM burst
system.mem_ctrl.avgBusLat                     5000.00                       # Average bus latency per DRAM burst
system.mem_ctrl.avgMemAccLat                 34268.34                       # Average memory access latency per DRAM burst
system.mem_ctrl.avgRdBW                         28.92                       # Average DRAM read bandwidth in MiByte/s
system.mem_ctrl.avgWrBW                          0.00                       # Average achieved write bandwidth in MiByte/s
system.mem_ctrl.avgRdBWSys                      28.92                       # Average system read bandwidth in MiByte/s
system.mem_ctrl.avgWrBWSys                       0.00                       # Average system write bandwidth in MiByte/s
system.mem_ctrl.peakBW                       12800.00                       # Theoretical peak bandwidth in MiByte/s
system.mem_ctrl.busUtil                          0.23                       # Data bus utilization in percentage
system.mem_ctrl.busUtilRead                      0.23                       # Data bus utilization in percentage for reads
system.mem_ctrl.busUtilWrite                     0.00                       # Data bus utilization in percentage for writes
system.mem_ctrl.avgRdQLen                        1.00                       # Average read queue length when enqueuing
system.mem_ctrl.avgWrQLen                        0.00                       # Average write queue length when enqueuing
system.mem_ctrl.readRowHits                     20047                       # Number of row buffer hits during reads
system.mem_ctrl.writeRowHits                        0                       # Number of row buffer hits during writes
system.mem_ctrl.readRowHitRate                  72.95                       # Row buffer hit rate for reads
system.mem_ctrl.writeRowHitRate                   nan                       # Row buffer hit rate for writes
system.mem_ctrl.avgGap                     2212788.57                       # Average gap between requests
system.mem_ctrl.pageHitRate                     72.95                       # Row buffer hit rate, read and write combined
system.mem_ctrl_0.actEnergy                  26924940                       # Energy for activate commands per rank (pJ)
system.mem_ctrl_0.preEnergy                  14288175                       # Energy for precharge commands per rank (pJ)
system.mem_ctrl_0.readEnergy                 98153580                       # Energy for read commands per rank (pJ)
system.mem_ctrl_0.writeEnergy                       0                       # Energy for write commands per rank (pJ)
system.mem_ctrl_0.refreshEnergy          2140176480.000000                       # Energy for refresh commands per rank (pJ)
system.mem_ctrl_0.actBackEnergy             569260710                       # Energy for active background per rank (pJ)
system.mem_ctrl_0.preBackEnergy              46376640                       # Energy for precharge background per rank (pJ)
system.mem_ctrl_0.actPowerDownEnergy      10406319570                       # Energy for active power-down per rank (pJ)
system.mem_ctrl_0.prePowerDownEnergy       1125249120                       # Energy for precharge power-down per rank (pJ)
system.mem_ctrl_0.selfRefreshEnergy        8094261900                       # Energy for self refresh per rank (pJ)
system.mem_ctrl_0.totalEnergy             22521011115                       # Total energy per rank (pJ)
system.mem_ctrl_0.averagePower             370.338645                       # Core power per rank (mW)
system.mem_ctrl_0.totalIdleTime           59442642000                       # Total Idle time Per DRAM Rank
system.mem_ctrl_0.memoryStateTime::IDLE      25026500                       # Time in different power states
system.mem_ctrl_0.memoryStateTime::REF      905320000                       # Time in different power states
system.mem_ctrl_0.memoryStateTime::SREF   33691576000                       # Time in different power states
system.mem_ctrl_0.memoryStateTime::PRE_PDN   2930534500                       # Time in different power states
system.mem_ctrl_0.memoryStateTime::ACT      438910250                       # Time in different power states
system.mem_ctrl_0.memoryStateTime::ACT_PDN  22820571750                       # Time in different power states
system.mem_ctrl_1.actEnergy                  26160960                       # Energy for activate commands per rank (pJ)
system.mem_ctrl_1.preEnergy                  13893495                       # Energy for precharge commands per rank (pJ)
system.mem_ctrl_1.readEnergy                 98067900                       # Energy for read commands per rank (pJ)
system.mem_ctrl_1.writeEnergy                       0                       # Energy for write commands per rank (pJ)
system.mem_ctrl_1.refreshEnergy          2122966560.000000                       # Energy for refresh commands per rank (pJ)
system.mem_ctrl_1.actBackEnergy             565202310                       # Energy for active background per rank (pJ)
system.mem_ctrl_1.preBackEnergy              48792480                       # Energy for precharge background per rank (pJ)
system.mem_ctrl_1.actPowerDownEnergy      10182075870                       # Energy for active power-down per rank (pJ)
system.mem_ctrl_1.prePowerDownEnergy       1234283040                       # Energy for precharge power-down per rank (pJ)
system.mem_ctrl_1.selfRefreshEnergy        8160227520                       # Energy for self refresh per rank (pJ)
system.mem_ctrl_1.totalEnergy             22451670135                       # Total energy per rank (pJ)
system.mem_ctrl_1.averagePower             369.198393                       # Core power per rank (mW)
system.mem_ctrl_1.totalIdleTime           59444826250                       # Total Idle time Per DRAM Rank
system.mem_ctrl_1.memoryStateTime::IDLE      32494000                       # Time in different power states
system.mem_ctrl_1.memoryStateTime::REF      898040000                       # Time in different power states
system.mem_ctrl_1.memoryStateTime::SREF   33902006000                       # Time in different power states
system.mem_ctrl_1.memoryStateTime::PRE_PDN   3214554500                       # Time in different power states
system.mem_ctrl_1.memoryStateTime::ACT      436340500                       # Time in different power states
system.mem_ctrl_1.memoryStateTime::ACT_PDN  22328504000                       # Time in different power states
system.pwrStateResidencyTicks::UNDEFINED  60811939000                       # Cumulative time (in ticks) in various power states
system.cpu.branchPred.lookups                22548633                       # Number of BP lookups
system.cpu.branchPred.condPredicted          22548633                       # Number of conditional branches predicted
system.cpu.branchPred.condIncorrect            381002                       # Number of conditional branches incorrect
system.cpu.branchPred.BTBLookups             19110284                       # Number of BTB lookups
system.cpu.branchPred.BTBHits                       0                       # Number of BTB hits
system.cpu.branchPred.BTBCorrect                    0                       # Number of correct BTB predictions (this stat may not work properly.
system.cpu.branchPred.BTBHitPct              0.000000                       # BTB Hit Percentage
system.cpu.branchPred.usedRAS                  719433                       # Number of times the RAS was used to get a target.
system.cpu.branchPred.RASInCorrect                857                       # Number of incorrect RAS predictions.
system.cpu.branchPred.indirectLookups        19110284                       # Number of indirect predictor lookups.
system.cpu.branchPred.indirectHits            8300330                       # Number of indirect target hits.
system.cpu.branchPred.indirectMisses         10809954                       # Number of indirect misses.
system.cpu.branchPredindirectMispredicted       307228                       # Number of mispredicted indirect branches.
system.cpu.dtb.walker.pwrStateResidencyTicks::UNDEFINED  60811939000                       # Cumulative time (in ticks) in various power states
system.cpu.dtb.rdAccesses                    18673768                       # TLB accesses on read requests
system.cpu.dtb.wrAccesses                    11843569                       # TLB accesses on write requests
system.cpu.dtb.rdMisses                        101524                       # TLB misses on read requests
system.cpu.dtb.wrMisses                           538                       # TLB misses on write requests
system.cpu.apic_clk_domain.clock                 8000                       # Clock period in ticks
system.cpu.interrupts.pwrStateResidencyTicks::UNDEFINED  60811939000                       # Cumulative time (in ticks) in various power states
system.cpu.itb.walker.pwrStateResidencyTicks::UNDEFINED  60811939000                       # Cumulative time (in ticks) in various power states
system.cpu.itb.rdAccesses                           0                       # TLB accesses on read requests
system.cpu.itb.wrAccesses                    13444496                       # TLB accesses on write requests
system.cpu.itb.rdMisses                             0                       # TLB misses on read requests
system.cpu.itb.wrMisses                           100                       # TLB misses on write requests
system.cpu.workload.numSyscalls                    86                       # Number of system calls
system.cpu.pwrStateResidencyTicks::ON     60811939000                       # Cumulative time (in ticks) in various power states
system.cpu.numCycles                        121623879                       # number of cpu cycles simulated
system.cpu.numWorkItemsStarted                      0                       # number of work items this cpu started
system.cpu.numWorkItemsCompleted                    0                       # number of work items this cpu completed
system.cpu.fetch.icacheStallCycles             424360                       # Number of cycles fetch is stalled on an Icache miss
system.cpu.fetch.Insts                       97485549                       # Number of instructions fetch has processed
system.cpu.fetch.Branches                    22548633                       # Number of branches that fetch encountered
system.cpu.fetch.predictedBranches            9019763                       # Number of branches that fetch has predicted taken
system.cpu.fetch.Cycles                     120776651                       # Number of cycles fetch has run and was not squashing or blocked
system.cpu.fetch.SquashCycles                  762604                       # Number of cycles fetch has spent squashing
system.cpu.fetch.MiscStallCycles                   23                       # Number of cycles fetch has spent waiting on interrupts, or bad addresses, or out of MSHRs
system.cpu.fetch.PendingTrapStallCycles           565                       # Number of stall cycles due to pending traps
system.cpu.fetch.PendingQuiesceStallCycles           24                       # Number of stall cycles due to pending quiesce instructions
system.cpu.fetch.IcacheWaitRetryStallCycles           22                       # Number of stall cycles due to full MSHR
system.cpu.fetch.CacheLines                  13444453                       # Number of cache lines fetched
system.cpu.fetch.IcacheSquashes                   532                       # Number of outstanding Icache misses that were squashed
system.cpu.fetch.rateDist::samples          121582947                       # Number of instructions fetched each cycle (Total)
system.cpu.fetch.rateDist::mean              1.484947                       # Number of instructions fetched each cycle (Total)
system.cpu.fetch.rateDist::stdev             1.817620                       # Number of instructions fetched each cycle (Total)
system.cpu.fetch.rateDist::underflows               0      0.00%      0.00% # Number of instructions fetched each cycle (Total)
system.cpu.fetch.rateDist::0                 68618403     56.44%     56.44% # Number of instructions fetched each cycle (Total)
system.cpu.fetch.rateDist::1                  5094043      4.19%     60.63% # Number of instructions fetched each cycle (Total)
system.cpu.fetch.rateDist::2                  5488835      4.51%     65.14% # Number of instructions fetched each cycle (Total)
system.cpu.fetch.rateDist::3                  5054100      4.16%     69.30% # Number of instructions fetched each cycle (Total)
system.cpu.fetch.rateDist::4                 37327566     30.70%    100.00% # Number of instructions fetched each cycle (Total)
system.cpu.fetch.rateDist::overflows                0      0.00%    100.00% # Number of instructions fetched each cycle (Total)
system.cpu.fetch.rateDist::min_value                0                       # Number of instructions fetched each cycle (Total)
system.cpu.fetch.rateDist::max_value                4                       # Number of instructions fetched each cycle (Total)
system.cpu.fetch.rateDist::total            121582947                       # Number of instructions fetched each cycle (Total)
system.cpu.fetch.branchRate                  0.185396                       # Number of branch fetches per cycle
system.cpu.fetch.rate                        0.801533                       # Number of inst fetches per cycle
system.cpu.decode.IdleCycles                 15224838                       # Number of cycles decode is idle
system.cpu.decode.BlockedCycles              63785009                       # Number of cycles decode is blocked
system.cpu.decode.RunCycles                  20731557                       # Number of cycles decode is running
system.cpu.decode.UnblockCycles              21460241                       # Number of cycles decode is unblocking
system.cpu.decode.SquashCycles                 381302                       # Number of cycles decode is squashing
system.cpu.decode.DecodedInsts              165609554                       # Number of instructions handled by decode
system.cpu.decode.SquashedInsts               1130780                       # Number of squashed instructions handled by decode
system.cpu.rename.SquashCycles                 381302                       # Number of cycles rename is squashing
system.cpu.rename.IdleCycles                 27506669                       # Number of cycles rename is idle
system.cpu.rename.BlockCycles                31420501                       # Number of cycles rename is blocking
system.cpu.rename.serializeStallCycles           2670                       # count of cycles rename stalled for serializing inst
system.cpu.rename.RunCycles                  28376277                       # Number of cycles rename is running
system.cpu.rename.UnblockCycles              33895528                       # Number of cycles rename is unblocking
system.cpu.rename.RenamedInsts              163522062                       # Number of instructions processed by rename
system.cpu.rename.SquashedInsts                926340                       # Number of squashed instructions processed by rename
system.cpu.rename.ROBFullEvents              27297013                       # Number of times rename has blocked due to ROB full
system.cpu.rename.SQFullEvents                2225503                       # Number of times rename has blocked due to SQ full
system.cpu.rename.RenamedOperands           183457529                       # Number of destination operands rename has renamed
system.cpu.rename.RenameLookups             417396954                       # Number of register rename lookups that rename has made
system.cpu.rename.int_rename_lookups        240611800                       # Number of integer rename lookups
system.cpu.rename.fp_rename_lookups            304390                       # Number of floating rename lookups
system.cpu.rename.CommittedMaps             177569425                       # Number of HB maps that are committed
system.cpu.rename.UndoneMaps                  5888104                       # Number of HB maps that are undone due to squashing
system.cpu.rename.serializingInsts                100                       # count of serializing insts renamed
system.cpu.rename.tempSerializingInsts             98                       # count of temporary serializing insts renamed
system.cpu.rename.skidInsts                  68430304                       # count of insts added to the skid buffer
system.cpu.memDep0.insertedLoads             18824857                       # Number of loads inserted to the mem dependence unit.
system.cpu.memDep0.insertedStores            11982527                       # Number of stores inserted to the mem dependence unit.
system.cpu.memDep0.conflictingLoads            745712                       # Number of conflicting loads.
system.cpu.memDep0.conflictingStores           175064                       # Number of conflicting stores.
system.cpu.iq.iqInstsAdded                  162115136                       # Number of instructions added to the IQ (excludes non-spec)
system.cpu.iq.iqNonSpecInstsAdded               18214                       # Number of non-speculative instructions added to the IQ
system.cpu.iq.iqInstsIssued                 161345142                       # Number of instructions issued
system.cpu.iq.iqSquashedInstsIssued             62002                       # Number of squashed instructions issued
system.cpu.iq.iqSquashedInstsExamined         4037376                       # Number of squashed instructions iterated over during squash; mainly for profiling
system.cpu.iq.iqSquashedOperandsExamined      3652591                       # Number of squashed operands that are examined and possibly removed from graph
system.cpu.iq.iqSquashedNonSpecRemoved          18128                       # Number of squashed non-spec instructions that were removed
system.cpu.iq.issued_per_cycle::samples     121582947                       # Number of insts issued each cycle
system.cpu.iq.issued_per_cycle::mean         1.327038                       # Number of insts issued each cycle
system.cpu.iq.issued_per_cycle::stdev        0.985895                       # Number of insts issued each cycle
system.cpu.iq.issued_per_cycle::underflows            0      0.00%      0.00% # Number of insts issued each cycle
system.cpu.iq.issued_per_cycle::0            32146932     26.44%     26.44% # Number of insts issued each cycle
system.cpu.iq.issued_per_cycle::1            30993297     25.49%     51.93% # Number of insts issued each cycle
system.cpu.iq.issued_per_cycle::2            45072366     37.07%     89.00% # Number of insts issued each cycle
system.cpu.iq.issued_per_cycle::3            13274295     10.92%     99.92% # Number of insts issued each cycle
system.cpu.iq.issued_per_cycle::4               96057      0.08%    100.00% # Number of insts issued each cycle
system.cpu.iq.issued_per_cycle::overflows            0      0.00%    100.00% # Number of insts issued each cycle
system.cpu.iq.issued_per_cycle::min_value            0                       # Number of insts issued each cycle
system.cpu.iq.issued_per_cycle::max_value            4                       # Number of insts issued each cycle
system.cpu.iq.issued_per_cycle::total       121582947                       # Number of insts issued each cycle
system.cpu.iq.fu_full::No_OpClass                   0      0.00%      0.00% # attempts to use FU when none available
system.cpu.iq.fu_full::IntAlu                20805084     76.03%     76.03% # attempts to use FU when none available
system.cpu.iq.fu_full::IntMult                      0      0.00%     76.03% # attempts to use FU when none available
system.cpu.iq.fu_full::IntDiv                       0      0.00%     76.03% # attempts to use FU when none available
system.cpu.iq.fu_full::FloatAdd                     0      0.00%     76.03% # attempts to use FU when none available
system.cpu.iq.fu_full::FloatCmp                     0      0.00%     76.03% # attempts to use FU when none available
system.cpu.iq.fu_full::FloatCvt                     0      0.00%     76.03% # attempts to use FU when none available
system.cpu.iq.fu_full::FloatMult                    0      0.00%     76.03% # attempts to use FU when none available
system.cpu.iq.fu_full::FloatMultAcc                 0      0.00%     76.03% # attempts to use FU when none available
system.cpu.iq.fu_full::FloatDiv                     0      0.00%     76.03% # attempts to use FU when none available
system.cpu.iq.fu_full::FloatMisc                    0      0.00%     76.03% # attempts to use FU when none available
system.cpu.iq.fu_full::FloatSqrt                    0      0.00%     76.03% # attempts to use FU when none available
system.cpu.iq.fu_full::SimdAdd                    266      0.00%     76.04% # attempts to use FU when none available
system.cpu.iq.fu_full::SimdAddAcc                   0      0.00%     76.04% # attempts to use FU when none available
system.cpu.iq.fu_full::SimdAlu                     75      0.00%     76.04% # attempts to use FU when none available
system.cpu.iq.fu_full::SimdCmp                      1      0.00%     76.04% # attempts to use FU when none available
system.cpu.iq.fu_full::SimdCvt                     42      0.00%     76.04% # attempts to use FU when none available
system.cpu.iq.fu_full::SimdMisc                   152      0.00%     76.04% # attempts to use FU when none available
system.cpu.iq.fu_full::SimdMult                     0      0.00%     76.04% # attempts to use FU when none available
system.cpu.iq.fu_full::SimdMultAcc                  0      0.00%     76.04% # attempts to use FU when none available
system.cpu.iq.fu_full::SimdShift                  120      0.00%     76.04% # attempts to use FU when none available
system.cpu.iq.fu_full::SimdShiftAcc                 0      0.00%     76.04% # attempts to use FU when none available
system.cpu.iq.fu_full::SimdSqrt                     0      0.00%     76.04% # attempts to use FU when none available
system.cpu.iq.fu_full::SimdFloatAdd                 0      0.00%     76.04% # attempts to use FU when none available
system.cpu.iq.fu_full::SimdFloatAlu                 0      0.00%     76.04% # attempts to use FU when none available
system.cpu.iq.fu_full::SimdFloatCmp                 0      0.00%     76.04% # attempts to use FU when none available
system.cpu.iq.fu_full::SimdFloatCvt                 0      0.00%     76.04% # attempts to use FU when none available
system.cpu.iq.fu_full::SimdFloatDiv                 0      0.00%     76.04% # attempts to use FU when none available
system.cpu.iq.fu_full::SimdFloatMisc                0      0.00%     76.04% # attempts to use FU when none available
system.cpu.iq.fu_full::SimdFloatMult                0      0.00%     76.04% # attempts to use FU when none available
system.cpu.iq.fu_full::SimdFloatMultAcc             0      0.00%     76.04% # attempts to use FU when none available
system.cpu.iq.fu_full::SimdFloatSqrt                0      0.00%     76.04% # attempts to use FU when none available
system.cpu.iq.fu_full::SimdAes                      0      0.00%     76.04% # attempts to use FU when none available
system.cpu.iq.fu_full::SimdAesMix                   0      0.00%     76.04% # attempts to use FU when none available
system.cpu.iq.fu_full::SimdSha1Hash                 0      0.00%     76.04% # attempts to use FU when none available
system.cpu.iq.fu_full::SimdSha1Hash2                0      0.00%     76.04% # attempts to use FU when none available
system.cpu.iq.fu_full::SimdSha256Hash               0      0.00%     76.04% # attempts to use FU when none available
system.cpu.iq.fu_full::SimdSha256Hash2              0      0.00%     76.04% # attempts to use FU when none available
system.cpu.iq.fu_full::SimdShaSigma2                0      0.00%     76.04% # attempts to use FU when none available
system.cpu.iq.fu_full::SimdShaSigma3                0      0.00%     76.04% # attempts to use FU when none available
system.cpu.iq.fu_full::MemRead                5091661     18.61%     94.64% # attempts to use FU when none available
system.cpu.iq.fu_full::MemWrite               1465338      5.36%    100.00% # attempts to use FU when none available
system.cpu.iq.fu_full::FloatMemRead                 0      0.00%    100.00% # attempts to use FU when none available
system.cpu.iq.fu_full::FloatMemWrite                0      0.00%    100.00% # attempts to use FU when none available
system.cpu.iq.fu_full::IprAccess                    0      0.00%    100.00% # attempts to use FU when none available
system.cpu.iq.fu_full::InstPrefetch                 0      0.00%    100.00% # attempts to use FU when none available
system.cpu.iq.FU_type_0::No_OpClass            263740      0.16%      0.16% # Type of FU issued
system.cpu.iq.FU_type_0::IntAlu             129957390     80.55%     80.71% # Type of FU issued
system.cpu.iq.FU_type_0::IntMult               377631      0.23%     80.94% # Type of FU issued
system.cpu.iq.FU_type_0::IntDiv                    30      0.00%     80.94% # Type of FU issued
system.cpu.iq.FU_type_0::FloatAdd              100020      0.06%     81.01% # Type of FU issued
system.cpu.iq.FU_type_0::FloatCmp                   0      0.00%     81.01% # Type of FU issued
system.cpu.iq.FU_type_0::FloatCvt                   0      0.00%     81.01% # Type of FU issued
system.cpu.iq.FU_type_0::FloatMult                  0      0.00%     81.01% # Type of FU issued
system.cpu.iq.FU_type_0::FloatMultAcc               0      0.00%     81.01% # Type of FU issued
system.cpu.iq.FU_type_0::FloatDiv                   0      0.00%     81.01% # Type of FU issued
system.cpu.iq.FU_type_0::FloatMisc                  0      0.00%     81.01% # Type of FU issued
system.cpu.iq.FU_type_0::FloatSqrt                  0      0.00%     81.01% # Type of FU issued
system.cpu.iq.FU_type_0::SimdAdd                  378      0.00%     81.01% # Type of FU issued
system.cpu.iq.FU_type_0::SimdAddAcc                 0      0.00%     81.01% # Type of FU issued
system.cpu.iq.FU_type_0::SimdAlu                  105      0.00%     81.01% # Type of FU issued
system.cpu.iq.FU_type_0::SimdCmp                    6      0.00%     81.01% # Type of FU issued
system.cpu.iq.FU_type_0::SimdCvt                  148      0.00%     81.01% # Type of FU issued
system.cpu.iq.FU_type_0::SimdMisc                 260      0.00%     81.01% # Type of FU issued
system.cpu.iq.FU_type_0::SimdMult                   0      0.00%     81.01% # Type of FU issued
system.cpu.iq.FU_type_0::SimdMultAcc                0      0.00%     81.01% # Type of FU issued
system.cpu.iq.FU_type_0::SimdShift                187      0.00%     81.01% # Type of FU issued
system.cpu.iq.FU_type_0::SimdShiftAcc               0      0.00%     81.01% # Type of FU issued
system.cpu.iq.FU_type_0::SimdSqrt                   0      0.00%     81.01% # Type of FU issued
system.cpu.iq.FU_type_0::SimdFloatAdd               0      0.00%     81.01% # Type of FU issued
system.cpu.iq.FU_type_0::SimdFloatAlu               0      0.00%     81.01% # Type of FU issued
system.cpu.iq.FU_type_0::SimdFloatCmp               0      0.00%     81.01% # Type of FU issued
system.cpu.iq.FU_type_0::SimdFloatCvt               0      0.00%     81.01% # Type of FU issued
system.cpu.iq.FU_type_0::SimdFloatDiv               0      0.00%     81.01% # Type of FU issued
system.cpu.iq.FU_type_0::SimdFloatMisc              0      0.00%     81.01% # Type of FU issued
system.cpu.iq.FU_type_0::SimdFloatMult              0      0.00%     81.01% # Type of FU issued
system.cpu.iq.FU_type_0::SimdFloatMultAcc            0      0.00%     81.01% # Type of FU issued
system.cpu.iq.FU_type_0::SimdFloatSqrt              0      0.00%     81.01% # Type of FU issued
system.cpu.iq.FU_type_0::SimdAes                    0      0.00%     81.01% # Type of FU issued
system.cpu.iq.FU_type_0::SimdAesMix                 0      0.00%     81.01% # Type of FU issued
system.cpu.iq.FU_type_0::SimdSha1Hash               0      0.00%     81.01% # Type of FU issued
system.cpu.iq.FU_type_0::SimdSha1Hash2              0      0.00%     81.01% # Type of FU issued
system.cpu.iq.FU_type_0::SimdSha256Hash             0      0.00%     81.01% # Type of FU issued
system.cpu.iq.FU_type_0::SimdSha256Hash2            0      0.00%     81.01% # Type of FU issued
system.cpu.iq.FU_type_0::SimdShaSigma2              0      0.00%     81.01% # Type of FU issued
system.cpu.iq.FU_type_0::SimdShaSigma3              0      0.00%     81.01% # Type of FU issued
system.cpu.iq.FU_type_0::MemRead             18428897     11.42%     92.43% # Type of FU issued
system.cpu.iq.FU_type_0::MemWrite            11615563      7.20%     99.63% # Type of FU issued
system.cpu.iq.FU_type_0::FloatMemRead          300200      0.19%     99.81% # Type of FU issued
system.cpu.iq.FU_type_0::FloatMemWrite         300587      0.19%    100.00% # Type of FU issued
system.cpu.iq.FU_type_0::IprAccess                  0      0.00%    100.00% # Type of FU issued
system.cpu.iq.FU_type_0::InstPrefetch               0      0.00%    100.00% # Type of FU issued
system.cpu.iq.FU_type_0::total              161345142                       # Type of FU issued
system.cpu.iq.rate                           1.326591                       # Inst issue rate
system.cpu.iq.fu_busy_cnt                    27362739                       # FU busy when requested
system.cpu.iq.fu_busy_rate                   0.169591                       # FU busy rate (busy events/executed inst)
system.cpu.iq.int_inst_queue_reads          470292402                       # Number of integer instruction queue reads
system.cpu.iq.int_inst_queue_writes         165468230                       # Number of integer instruction queue writes
system.cpu.iq.int_inst_queue_wakeup_accesses    159766436                       # Number of integer instruction queue wakeup accesses
system.cpu.iq.fp_inst_queue_reads             1405570                       # Number of floating instruction queue reads
system.cpu.iq.fp_inst_queue_writes             702786                       # Number of floating instruction queue writes
system.cpu.iq.fp_inst_queue_wakeup_accesses       702353                       # Number of floating instruction queue wakeup accesses
system.cpu.iq.vec_inst_queue_reads                  0                       # Number of vector instruction queue reads
system.cpu.iq.vec_inst_queue_writes                 0                       # Number of vector instruction queue writes
system.cpu.iq.vec_inst_queue_wakeup_accesses            0                       # Number of vector instruction queue wakeup accesses
system.cpu.iq.int_alu_accesses              187740990                       # Number of integer alu accesses
system.cpu.iq.fp_alu_accesses                  703151                       # Number of floating point alu accesses
system.cpu.iq.vec_alu_accesses                      0                       # Number of vector alu accesses
system.cpu.iew.lsq.thread0.forwLoads           951431                       # Number of loads that had data forwarded from stores
system.cpu.iew.lsq.thread0.invAddrLoads             0                       # Number of loads ignored due to an invalid address
system.cpu.iew.lsq.thread0.squashedLoads       338243                       # Number of loads squashed
system.cpu.iew.lsq.thread0.ignoredResponses           70                       # Number of memory responses ignored because the instruction is squashed
system.cpu.iew.lsq.thread0.memOrderViolation          290                       # Number of memory ordering violations
system.cpu.iew.lsq.thread0.squashedStores       385486                       # Number of stores squashed
system.cpu.iew.lsq.thread0.invAddrSwpfs             0                       # Number of software prefetches ignored due to an invalid address
system.cpu.iew.lsq.thread0.blockedLoads             0                       # Number of blocked loads due to partial load-store forwarding
system.cpu.iew.lsq.thread0.rescheduledLoads            1                       # Number of loads that were rescheduled
system.cpu.iew.lsq.thread0.cacheBlocked            12                       # Number of times an access to memory failed due to the cache being blocked
system.cpu.iew.iewIdleCycles                        0                       # Number of cycles IEW is idle
system.cpu.iew.iewSquashCycles                 381302                       # Number of cycles IEW is squashing
system.cpu.iew.iewBlockCycles                       0                       # Number of cycles IEW is blocking
system.cpu.iew.iewUnblockCycles                 51481                       # Number of cycles IEW is unblocking
system.cpu.iew.iewDispatchedInsts           162133350                       # Number of instructions dispatched to IQ
system.cpu.iew.iewDispSquashedInsts            829522                       # Number of squashed instructions skipped by dispatch
system.cpu.iew.iewDispLoadInsts              18824857                       # Number of dispatched load instructions
system.cpu.iew.iewDispStoreInsts             11982527                       # Number of dispatched store instructions
system.cpu.iew.iewDispNonSpecInsts               6135                       # Number of dispatched non-speculative instructions
system.cpu.iew.iewIQFullEvents                      0                       # Number of times the IQ has become full, causing a stall
system.cpu.iew.iewLSQFullEvents                 51470                       # Number of times the LSQ has become full, causing a stall
system.cpu.iew.memOrderViolationEvents            290                       # Number of memory order violations
system.cpu.iew.predictedTakenIncorrect          54683                       # Number of branches that were predicted taken incorrectly
system.cpu.iew.predictedNotTakenIncorrect       344353                       # Number of branches that were predicted not taken incorrectly
system.cpu.iew.branchMispredicts               399036                       # Number of branch mispredicts detected at execute
system.cpu.iew.iewExecutedInsts             160539410                       # Number of executed instructions
system.cpu.iew.iewExecLoadInsts              18673756                       # Number of load instructions executed
system.cpu.iew.iewExecSquashedInsts            805732                       # Number of squashed instructions skipped in execute
system.cpu.iew.exec_swp                             0                       # number of swp insts executed
system.cpu.iew.exec_nop                             0                       # number of nop insts executed
system.cpu.iew.exec_refs                     30517324                       # number of memory reference insts executed
system.cpu.iew.exec_branches                 19811411                       # Number of branches executed
system.cpu.iew.exec_stores                   11843568                       # Number of stores executed
system.cpu.iew.exec_rate                     1.319966                       # Inst execution rate
system.cpu.iew.wb_sent                      160480134                       # cumulative count of insts sent to commit
system.cpu.iew.wb_count                     160468789                       # cumulative count of insts written-back
system.cpu.iew.wb_producers                 106891533                       # num instructions producing a value
system.cpu.iew.wb_consumers                 156379710                       # num instructions consuming a value
system.cpu.iew.wb_rate                       1.319386                       # insts written-back per cycle
system.cpu.iew.wb_fanout                     0.683538                       # average fanout of values written-back
system.cpu.commit.commitSquashedInsts         3561299                       # The number of squashed insts skipped by commit
system.cpu.commit.commitNonSpecStalls              86                       # The number of times commit has been forced to stall to communicate backwards
system.cpu.commit.branchMispredicts            381017                       # The number of times a branch was mispredicted
system.cpu.commit.committed_per_cycle::samples    121201645                       # Number of insts commited each cycle
system.cpu.commit.committed_per_cycle::mean     1.304405                       # Number of insts commited each cycle
system.cpu.commit.committed_per_cycle::stdev     1.494211                       # Number of insts commited each cycle
system.cpu.commit.committed_per_cycle::underflows            0      0.00%      0.00% # Number of insts commited each cycle
system.cpu.commit.committed_per_cycle::0     57136623     47.14%     47.14% # Number of insts commited each cycle
system.cpu.commit.committed_per_cycle::1     19164636     15.81%     62.95% # Number of insts commited each cycle
system.cpu.commit.committed_per_cycle::2     11972356      9.88%     72.83% # Number of insts commited each cycle
system.cpu.commit.committed_per_cycle::3     16725495     13.80%     86.63% # Number of insts commited each cycle
system.cpu.commit.committed_per_cycle::4     16202535     13.37%    100.00% # Number of insts commited each cycle
system.cpu.commit.committed_per_cycle::overflows            0      0.00%    100.00% # Number of insts commited each cycle
system.cpu.commit.committed_per_cycle::min_value            0                       # Number of insts commited each cycle
system.cpu.commit.committed_per_cycle::max_value            4                       # Number of insts commited each cycle
system.cpu.commit.committed_per_cycle::total    121201645                       # Number of insts commited each cycle
system.cpu.commit.committedInsts             85121742                       # Number of instructions committed
system.cpu.commit.committedOps              158095973                       # Number of ops (including micro ops) committed
system.cpu.commit.swp_count                         0                       # Number of s/w prefetches committed
system.cpu.commit.refs                       30083655                       # Number of memory references committed
system.cpu.commit.loads                      18486614                       # Number of loads committed
system.cpu.commit.membars                           0                       # Number of memory barriers committed
system.cpu.commit.branches                   19756630                       # Number of branches committed
system.cpu.commit.vec_insts                         0                       # Number of committed Vector instructions.
system.cpu.commit.fp_insts                     702138                       # Number of committed floating point instructions.
system.cpu.commit.int_insts                 157789319                       # Number of committed integer instructions.
system.cpu.commit.function_calls               665498                       # Number of function calls committed.
system.cpu.commit.op_class_0::No_OpClass       100115      0.06%      0.06% # Class of committed instruction
system.cpu.commit.op_class_0::IntAlu        127433462     80.61%     80.67% # Class of committed instruction
system.cpu.commit.op_class_0::IntMult          377627      0.24%     80.91% # Class of committed instruction
system.cpu.commit.op_class_0::IntDiv               28      0.00%     80.91% # Class of committed instruction
system.cpu.commit.op_class_0::FloatAdd         100015      0.06%     80.97% # Class of committed instruction
system.cpu.commit.op_class_0::FloatCmp              0      0.00%     80.97% # Class of committed instruction
system.cpu.commit.op_class_0::FloatCvt              0      0.00%     80.97% # Class of committed instruction
system.cpu.commit.op_class_0::FloatMult             0      0.00%     80.97% # Class of committed instruction
system.cpu.commit.op_class_0::FloatMultAcc            0      0.00%     80.97% # Class of committed instruction
system.cpu.commit.op_class_0::FloatDiv              0      0.00%     80.97% # Class of committed instruction
system.cpu.commit.op_class_0::FloatMisc             0      0.00%     80.97% # Class of committed instruction
system.cpu.commit.op_class_0::FloatSqrt             0      0.00%     80.97% # Class of committed instruction
system.cpu.commit.op_class_0::SimdAdd             374      0.00%     80.97% # Class of committed instruction
system.cpu.commit.op_class_0::SimdAddAcc            0      0.00%     80.97% # Class of committed instruction
system.cpu.commit.op_class_0::SimdAlu             102      0.00%     80.97% # Class of committed instruction
system.cpu.commit.op_class_0::SimdCmp               6      0.00%     80.97% # Class of committed instruction
system.cpu.commit.op_class_0::SimdCvt             144      0.00%     80.97% # Class of committed instruction
system.cpu.commit.op_class_0::SimdMisc            259      0.00%     80.97% # Class of committed instruction
system.cpu.commit.op_class_0::SimdMult              0      0.00%     80.97% # Class of committed instruction
system.cpu.commit.op_class_0::SimdMultAcc            0      0.00%     80.97% # Class of committed instruction
system.cpu.commit.op_class_0::SimdShift           186      0.00%     80.97% # Class of committed instruction
system.cpu.commit.op_class_0::SimdShiftAcc            0      0.00%     80.97% # Class of committed instruction
system.cpu.commit.op_class_0::SimdSqrt              0      0.00%     80.97% # Class of committed instruction
system.cpu.commit.op_class_0::SimdFloatAdd            0      0.00%     80.97% # Class of committed instruction
system.cpu.commit.op_class_0::SimdFloatAlu            0      0.00%     80.97% # Class of committed instruction
system.cpu.commit.op_class_0::SimdFloatCmp            0      0.00%     80.97% # Class of committed instruction
system.cpu.commit.op_class_0::SimdFloatCvt            0      0.00%     80.97% # Class of committed instruction
system.cpu.commit.op_class_0::SimdFloatDiv            0      0.00%     80.97% # Class of committed instruction
system.cpu.commit.op_class_0::SimdFloatMisc            0      0.00%     80.97% # Class of committed instruction
system.cpu.commit.op_class_0::SimdFloatMult            0      0.00%     80.97% # Class of committed instruction
system.cpu.commit.op_class_0::SimdFloatMultAcc            0      0.00%     80.97% # Class of committed instruction
system.cpu.commit.op_class_0::SimdFloatSqrt            0      0.00%     80.97% # Class of committed instruction
system.cpu.commit.op_class_0::SimdAes               0      0.00%     80.97% # Class of committed instruction
system.cpu.commit.op_class_0::SimdAesMix            0      0.00%     80.97% # Class of committed instruction
system.cpu.commit.op_class_0::SimdSha1Hash            0      0.00%     80.97% # Class of committed instruction
system.cpu.commit.op_class_0::SimdSha1Hash2            0      0.00%     80.97% # Class of committed instruction
system.cpu.commit.op_class_0::SimdSha256Hash            0      0.00%     80.97% # Class of committed instruction
system.cpu.commit.op_class_0::SimdSha256Hash2            0      0.00%     80.97% # Class of committed instruction
system.cpu.commit.op_class_0::SimdShaSigma2            0      0.00%     80.97% # Class of committed instruction
system.cpu.commit.op_class_0::SimdShaSigma3            0      0.00%     80.97% # Class of committed instruction
system.cpu.commit.op_class_0::MemRead        18186510     11.50%     92.47% # Class of committed instruction
system.cpu.commit.op_class_0::MemWrite       11296614      7.15%     99.62% # Class of committed instruction
system.cpu.commit.op_class_0::FloatMemRead       300104      0.19%     99.81% # Class of committed instruction
system.cpu.commit.op_class_0::FloatMemWrite       300427      0.19%    100.00% # Class of committed instruction
system.cpu.commit.op_class_0::IprAccess             0      0.00%    100.00% # Class of committed instruction
system.cpu.commit.op_class_0::InstPrefetch            0      0.00%    100.00% # Class of committed instruction
system.cpu.commit.op_class_0::total         158095973                       # Class of committed instruction
system.cpu.commit.bw_lim_events              16202535                       # number cycles where commit BW limit reached
system.cpu.rob.rob_reads                    266656382                       # The number of ROB reads
system.cpu.rob.rob_writes                   323695846                       # The number of ROB writes
system.cpu.timesIdled                             452                       # Number of times that the entire CPU went into an idle state and unscheduled itself
system.cpu.idleCycles                           40932                       # Total number of cycles that the CPU has spent unscheduled due to idling
system.cpu.committedInsts                    85121742                       # Number of Instructions Simulated
system.cpu.committedOps                     158095973                       # Number of Ops (including micro ops) Simulated
system.cpu.cpi                               1.428823                       # CPI: Cycles Per Instruction
system.cpu.cpi_total                         1.428823                       # CPI: Total CPI of All Threads
system.cpu.ipc                               0.699877                       # IPC: Instructions Per Cycle
system.cpu.ipc_total                         0.699877                       # IPC: Total IPC of All Threads
system.cpu.int_regfile_reads                236303383                       # number of integer regfile reads
system.cpu.int_regfile_writes               128445344                       # number of integer regfile writes
system.cpu.fp_regfile_reads                    304232                       # number of floating regfile reads
system.cpu.fp_regfile_writes                   401712                       # number of floating regfile writes
system.cpu.cc_regfile_reads                 101366981                       # number of cc regfile reads
system.cpu.cc_regfile_writes                 51392732                       # number of cc regfile writes
system.cpu.misc_regfile_reads                71205455                       # number of misc regfile reads
system.cpu.dcache.tags.pwrStateResidencyTicks::UNDEFINED  60811939000                       # Cumulative time (in ticks) in various power states
system.cpu.dcache.tags.tagsinuse           511.628255                       # Cycle average of tags in use
system.cpu.dcache.tags.total_refs            29306771                       # Total number of references to valid blocks.
system.cpu.dcache.tags.sampled_refs            214106                       # Sample count of references to valid blocks.
system.cpu.dcache.tags.avg_refs            136.879728                       # Average number of references to valid blocks.
system.cpu.dcache.tags.warmup_cycle            169500                       # Cycle when the warmup percentage was hit.
system.cpu.dcache.tags.occ_blocks::.cpu.data   511.628255                       # Average occupied blocks per requestor
system.cpu.dcache.tags.occ_percent::.cpu.data     0.999274                       # Average percentage of cache occupancy
system.cpu.dcache.tags.occ_percent::total     0.999274                       # Average percentage of cache occupancy
system.cpu.dcache.tags.occ_task_id_blocks::1024          512                       # Occupied blocks per task id
system.cpu.dcache.tags.age_task_id_blocks_1024::0          100                       # Occupied blocks per task id
system.cpu.dcache.tags.age_task_id_blocks_1024::1          399                       # Occupied blocks per task id
system.cpu.dcache.tags.age_task_id_blocks_1024::3           10                       # Occupied blocks per task id
system.cpu.dcache.tags.age_task_id_blocks_1024::4            3                       # Occupied blocks per task id
system.cpu.dcache.tags.occ_task_id_percent::1024            1                       # Percentage of cache occupancy per task id
system.cpu.dcache.tags.tag_accesses         234678642                       # Number of tag accesses
system.cpu.dcache.tags.data_accesses        234678642                       # Number of data accesses
system.cpu.dcache.pwrStateResidencyTicks::UNDEFINED  60811939000                       # Cumulative time (in ticks) in various power states
system.cpu.dcache.ReadReq_hits::.cpu.data     17522136                       # number of ReadReq hits
system.cpu.dcache.ReadReq_hits::total        17522136                       # number of ReadReq hits
system.cpu.dcache.WriteReq_hits::.cpu.data     11525390                       # number of WriteReq hits
system.cpu.dcache.WriteReq_hits::total       11525390                       # number of WriteReq hits
system.cpu.dcache.demand_hits::.cpu.data     29047526                       # number of demand (read+write) hits
system.cpu.dcache.demand_hits::total         29047526                       # number of demand (read+write) hits
system.cpu.dcache.overall_hits::.cpu.data     29047526                       # number of overall hits
system.cpu.dcache.overall_hits::total        29047526                       # number of overall hits
system.cpu.dcache.ReadReq_misses::.cpu.data       188890                       # number of ReadReq misses
system.cpu.dcache.ReadReq_misses::total        188890                       # number of ReadReq misses
system.cpu.dcache.WriteReq_misses::.cpu.data        71651                       # number of WriteReq misses
system.cpu.dcache.WriteReq_misses::total        71651                       # number of WriteReq misses
system.cpu.dcache.demand_misses::.cpu.data       260541                       # number of demand (read+write) misses
system.cpu.dcache.demand_misses::total         260541                       # number of demand (read+write) misses
system.cpu.dcache.overall_misses::.cpu.data       260541                       # number of overall misses
system.cpu.dcache.overall_misses::total        260541                       # number of overall misses
system.cpu.dcache.ReadReq_miss_latency::.cpu.data   5081004000                       # number of ReadReq miss cycles
system.cpu.dcache.ReadReq_miss_latency::total   5081004000                       # number of ReadReq miss cycles
system.cpu.dcache.WriteReq_miss_latency::.cpu.data   2484783000                       # number of WriteReq miss cycles
system.cpu.dcache.WriteReq_miss_latency::total   2484783000                       # number of WriteReq miss cycles
system.cpu.dcache.demand_miss_latency::.cpu.data   7565787000                       # number of demand (read+write) miss cycles
system.cpu.dcache.demand_miss_latency::total   7565787000                       # number of demand (read+write) miss cycles
system.cpu.dcache.overall_miss_latency::.cpu.data   7565787000                       # number of overall miss cycles
system.cpu.dcache.overall_miss_latency::total   7565787000                       # number of overall miss cycles
system.cpu.dcache.ReadReq_accesses::.cpu.data     17711026                       # number of ReadReq accesses(hits+misses)
system.cpu.dcache.ReadReq_accesses::total     17711026                       # number of ReadReq accesses(hits+misses)
system.cpu.dcache.WriteReq_accesses::.cpu.data     11597041                       # number of WriteReq accesses(hits+misses)
system.cpu.dcache.WriteReq_accesses::total     11597041                       # number of WriteReq accesses(hits+misses)
system.cpu.dcache.demand_accesses::.cpu.data     29308067                       # number of demand (read+write) accesses
system.cpu.dcache.demand_accesses::total     29308067                       # number of demand (read+write) accesses
system.cpu.dcache.overall_accesses::.cpu.data     29308067                       # number of overall (read+write) accesses
system.cpu.dcache.overall_accesses::total     29308067                       # number of overall (read+write) accesses
system.cpu.dcache.ReadReq_miss_rate::.cpu.data     0.010665                       # miss rate for ReadReq accesses
system.cpu.dcache.ReadReq_miss_rate::total     0.010665                       # miss rate for ReadReq accesses
system.cpu.dcache.WriteReq_miss_rate::.cpu.data     0.006178                       # miss rate for WriteReq accesses
system.cpu.dcache.WriteReq_miss_rate::total     0.006178                       # miss rate for WriteReq accesses
system.cpu.dcache.demand_miss_rate::.cpu.data     0.008890                       # miss rate for demand accesses
system.cpu.dcache.demand_miss_rate::total     0.008890                       # miss rate for demand accesses
system.cpu.dcache.overall_miss_rate::.cpu.data     0.008890                       # miss rate for overall accesses
system.cpu.dcache.overall_miss_rate::total     0.008890                       # miss rate for overall accesses
system.cpu.dcache.ReadReq_avg_miss_latency::.cpu.data 26899.274710                       # average ReadReq miss latency
[...]
system.l3cache.tags.occ_percent::.cpu.inst     0.021162                       # Average percentage of cache occupancy
system.l3cache.tags.occ_percent::.cpu.data     0.475219                       # Average percentage of cache occupancy
system.l3cache.tags.occ_percent::total       0.496382                       # Average percentage of cache occupancy
system.l3cache.tags.occ_task_id_blocks::1024        27480                       # Occupied blocks per task id
system.l3cache.tags.age_task_id_blocks_1024::0           62                       # Occupied blocks per task id
system.l3cache.tags.age_task_id_blocks_1024::3         1150                       # Occupied blocks per task id
system.l3cache.tags.age_task_id_blocks_1024::4        26268                       # Occupied blocks per task id
system.l3cache.tags.occ_task_id_percent::1024     0.838623                       # Percentage of cache occupancy per task id
system.l3cache.tags.tag_accesses              4570938                       # Number of tag accesses
system.l3cache.tags.data_accesses             4570938                       # Number of data accesses
system.l3cache.pwrStateResidencyTicks::UNDEFINED  60811939000                       # Cumulative time (in ticks) in various power states
system.l3cache.WritebackDirty_hits::.writebacks       139421                       # number of WritebackDirty hits
system.l3cache.WritebackDirty_hits::total       139421                       # number of WritebackDirty hits
system.l3cache.ReadExReq_hits::.cpu.data            6                       # number of ReadExReq hits
system.l3cache.ReadExReq_hits::total                6                       # number of ReadExReq hits
system.l3cache.ReadSharedReq_hits::.cpu.inst           17                       # number of ReadSharedReq hits
system.l3cache.ReadSharedReq_hits::.cpu.data       117040                       # number of ReadSharedReq hits
system.l3cache.ReadSharedReq_hits::total       117057                       # number of ReadSharedReq hits
system.l3cache.demand_hits::.cpu.inst              17                       # number of demand (read+write) hits
system.l3cache.demand_hits::.cpu.data          117046                       # number of demand (read+write) hits
system.l3cache.demand_hits::total              117063                       # number of demand (read+write) hits
system.l3cache.overall_hits::.cpu.inst             17                       # number of overall hits
system.l3cache.overall_hits::.cpu.data         117046                       # number of overall hits
system.l3cache.overall_hits::total             117063                       # number of overall hits
system.l3cache.ReadExReq_misses::.cpu.data        26391                       # number of ReadExReq misses
system.l3cache.ReadExReq_misses::total          26391                       # number of ReadExReq misses
system.l3cache.ReadSharedReq_misses::.cpu.inst          811                       # number of ReadSharedReq misses
system.l3cache.ReadSharedReq_misses::.cpu.data          280                       # number of ReadSharedReq misses
system.l3cache.ReadSharedReq_misses::total         1091                       # number of ReadSharedReq misses
system.l3cache.demand_misses::.cpu.inst           811                       # number of demand (read+write) misses
system.l3cache.demand_misses::.cpu.data         26671                       # number of demand (read+write) misses
system.l3cache.demand_misses::total             27482                       # number of demand (read+write) misses
system.l3cache.overall_misses::.cpu.inst          811                       # number of overall misses
system.l3cache.overall_misses::.cpu.data        26671                       # number of overall misses
system.l3cache.overall_misses::total            27482                       # number of overall misses
system.l3cache.ReadExReq_miss_latency::.cpu.data   1876747500                       # number of ReadExReq miss cycles
system.l3cache.ReadExReq_miss_latency::total   1876747500                       # number of ReadExReq miss cycles
system.l3cache.ReadSharedReq_miss_latency::.cpu.inst     62686000                       # number of ReadSharedReq miss cycles
system.l3cache.ReadSharedReq_miss_latency::.cpu.data     24309000                       # number of ReadSharedReq miss cycles
system.l3cache.ReadSharedReq_miss_latency::total     86995000                       # number of ReadSharedReq miss cycles
system.l3cache.demand_miss_latency::.cpu.inst     62686000                       # number of demand (read+write) miss cycles
system.l3cache.demand_miss_latency::.cpu.data   1901056500                       # number of demand (read+write) miss cycles
system.l3cache.demand_miss_latency::total   1963742500                       # number of demand (read+write) miss cycles
system.l3cache.overall_miss_latency::.cpu.inst     62686000                       # number of overall miss cycles
system.l3cache.overall_miss_latency::.cpu.data   1901056500                       # number of overall miss cycles
system.l3cache.overall_miss_latency::total   1963742500                       # number of overall miss cycles
system.l3cache.WritebackDirty_accesses::.writebacks       139421                       # number of WritebackDirty accesses(hits+misses)
system.l3cache.WritebackDirty_accesses::total       139421                       # number of WritebackDirty accesses(hits+misses)
system.l3cache.ReadExReq_accesses::.cpu.data        26397                       # number of ReadExReq accesses(hits+misses)
system.l3cache.ReadExReq_accesses::total        26397                       # number of ReadExReq accesses(hits+misses)
system.l3cache.ReadSharedReq_accesses::.cpu.inst          828                       # number of ReadSharedReq accesses(hits+misses)
system.l3cache.ReadSharedReq_accesses::.cpu.data       117320                       # number of ReadSharedReq accesses(hits+misses)
system.l3cache.ReadSharedReq_accesses::total       118148                       # number of ReadSharedReq accesses(hits+misses)
system.l3cache.demand_accesses::.cpu.inst          828                       # number of demand (read+write) accesses
system.l3cache.demand_accesses::.cpu.data       143717                       # number of demand (read+write) accesses
system.l3cache.demand_accesses::total          144545                       # number of demand (read+write) accesses
system.l3cache.overall_accesses::.cpu.inst          828                       # number of overall (read+write) accesses
system.l3cache.overall_accesses::.cpu.data       143717                       # number of overall (read+write) accesses
system.l3cache.overall_accesses::total         144545                       # number of overall (read+write) accesses
system.l3cache.ReadExReq_miss_rate::.cpu.data     0.999773                       # miss rate for ReadExReq accesses
system.l3cache.ReadExReq_miss_rate::total     0.999773                       # miss rate for ReadExReq accesses
system.l3cache.ReadSharedReq_miss_rate::.cpu.inst     0.979469                       # miss rate for ReadSharedReq accesses
system.l3cache.ReadSharedReq_miss_rate::.cpu.data     0.002387                       # miss rate for ReadSharedReq accesses
system.l3cache.ReadSharedReq_miss_rate::total     0.009234                       # miss rate for ReadSharedReq accesses
system.l3cache.demand_miss_rate::.cpu.inst     0.979469                       # miss rate for demand accesses
system.l3cache.demand_miss_rate::.cpu.data     0.185580                       # miss rate for demand accesses
system.l3cache.demand_miss_rate::total       0.190128                       # miss rate for demand accesses
system.l3cache.overall_miss_rate::.cpu.inst     0.979469                       # miss rate for overall accesses
system.l3cache.overall_miss_rate::.cpu.data     0.185580                       # miss rate for overall accesses
system.l3cache.overall_miss_rate::total      0.190128                       # miss rate for overall accesses
system.l3cache.ReadExReq_avg_miss_latency::.cpu.data 71113.163578                       # average ReadExReq miss latency
system.l3cache.ReadExReq_avg_miss_latency::total 71113.163578                       # average ReadExReq miss latency
system.l3cache.ReadSharedReq_avg_miss_latency::.cpu.inst 77294.697904                       # average ReadSharedReq miss latency
system.l3cache.ReadSharedReq_avg_miss_latency::.cpu.data 86817.857143                       # average ReadSharedReq miss latency
system.l3cache.ReadSharedReq_avg_miss_latency::total 79738.771769                       # average ReadSharedReq miss latency
system.l3cache.demand_avg_miss_latency::.cpu.inst 77294.697904                       # average overall miss latency
system.l3cache.demand_avg_miss_latency::.cpu.data 71278.036069                       # average overall miss latency
system.l3cache.demand_avg_miss_latency::total 71455.589113                       # average overall miss latency
system.l3cache.overall_avg_miss_latency::.cpu.inst 77294.697904                       # average overall miss latency
system.l3cache.overall_avg_miss_latency::.cpu.data 71278.036069                       # average overall miss latency
system.l3cache.overall_avg_miss_latency::total 71455.589113                       # average overall miss latency
system.l3cache.blocked_cycles::no_mshrs             0                       # number of cycles access was blocked
system.l3cache.blocked_cycles::no_targets            0                       # number of cycles access was blocked
system.l3cache.blocked::no_mshrs                    0                       # number of cycles access was blocked
system.l3cache.blocked::no_targets                  0                       # number of cycles access was blocked
system.l3cache.avg_blocked_cycles::no_mshrs          nan                       # average number of cycles each access was blocked
system.l3cache.avg_blocked_cycles::no_targets          nan                       # average number of cycles each access was blocked
system.l3cache.ReadExReq_mshr_misses::.cpu.data        26391                       # number of ReadExReq MSHR misses
system.l3cache.ReadExReq_mshr_misses::total        26391                       # number of ReadExReq MSHR misses
system.l3cache.ReadSharedReq_mshr_misses::.cpu.inst          811                       # number of ReadSharedReq MSHR misses
system.l3cache.ReadSharedReq_mshr_misses::.cpu.data          280                       # number of ReadSharedReq MSHR misses
system.l3cache.ReadSharedReq_mshr_misses::total         1091                       # number of ReadSharedReq MSHR misses
system.l3cache.demand_mshr_misses::.cpu.inst          811                       # number of demand (read+write) MSHR misses
system.l3cache.demand_mshr_misses::.cpu.data        26671                       # number of demand (read+write) MSHR misses
system.l3cache.demand_mshr_misses::total        27482                       # number of demand (read+write) MSHR misses
system.l3cache.overall_mshr_misses::.cpu.inst          811                       # number of overall MSHR misses
system.l3cache.overall_mshr_misses::.cpu.data        26671                       # number of overall MSHR misses
system.l3cache.overall_mshr_misses::total        27482                       # number of overall MSHR misses
system.l3cache.ReadExReq_mshr_miss_latency::.cpu.data   1823965500                       # number of ReadExReq MSHR miss cycles
system.l3cache.ReadExReq_mshr_miss_latency::total   1823965500                       # number of ReadExReq MSHR miss cycles
system.l3cache.ReadSharedReq_mshr_miss_latency::.cpu.inst     61064000                       # number of ReadSharedReq MSHR miss cycles
system.l3cache.ReadSharedReq_mshr_miss_latency::.cpu.data     23749000                       # number of ReadSharedReq MSHR miss cycles
system.l3cache.ReadSharedReq_mshr_miss_latency::total     84813000                       # number of ReadSharedReq MSHR miss cycles
system.l3cache.demand_mshr_miss_latency::.cpu.inst     61064000                       # number of demand (read+write) MSHR miss cycles
system.l3cache.demand_mshr_miss_latency::.cpu.data   1847714500                       # number of demand (read+write) MSHR miss cycles
system.l3cache.demand_mshr_miss_latency::total   1908778500                       # number of demand (read+write) MSHR miss cycles
system.l3cache.overall_mshr_miss_latency::.cpu.inst     61064000                       # number of overall MSHR miss cycles
system.l3cache.overall_mshr_miss_latency::.cpu.data   1847714500                       # number of overall MSHR miss cycles
system.l3cache.overall_mshr_miss_latency::total   1908778500                       # number of overall MSHR miss cycles
system.l3cache.ReadExReq_mshr_miss_rate::.cpu.data     0.999773                       # mshr miss rate for ReadExReq accesses
system.l3cache.ReadExReq_mshr_miss_rate::total     0.999773                       # mshr miss rate for ReadExReq accesses
system.l3cache.ReadSharedReq_mshr_miss_rate::.cpu.inst     0.979469                       # mshr miss rate for ReadSharedReq accesses
system.l3cache.ReadSharedReq_mshr_miss_rate::.cpu.data     0.002387                       # mshr miss rate for ReadSharedReq accesses
system.l3cache.ReadSharedReq_mshr_miss_rate::total     0.009234                       # mshr miss rate for ReadSharedReq accesses
system.l3cache.demand_mshr_miss_rate::.cpu.inst     0.979469                       # mshr miss rate for demand accesses
system.l3cache.demand_mshr_miss_rate::.cpu.data     0.185580                       # mshr miss rate for demand accesses
system.l3cache.demand_mshr_miss_rate::total     0.190128                       # mshr miss rate for demand accesses
system.l3cache.overall_mshr_miss_rate::.cpu.inst     0.979469                       # mshr miss rate for overall accesses
system.l3cache.overall_mshr_miss_rate::.cpu.data     0.185580                       # mshr miss rate for overall accesses
system.l3cache.overall_mshr_miss_rate::total     0.190128                       # mshr miss rate for overall accesses
system.l3cache.ReadExReq_avg_mshr_miss_latency::.cpu.data 69113.163578                       # average ReadExReq mshr miss latency
system.l3cache.ReadExReq_avg_mshr_miss_latency::total 69113.163578                       # average ReadExReq mshr miss latency
system.l3cache.ReadSharedReq_avg_mshr_miss_latency::.cpu.inst 75294.697904                       # average ReadSharedReq mshr miss latency
system.l3cache.ReadSharedReq_avg_mshr_miss_latency::.cpu.data 84817.857143                       # average ReadSharedReq mshr miss latency
system.l3cache.ReadSharedReq_avg_mshr_miss_latency::total 77738.771769                       # average ReadSharedReq mshr miss latency
system.l3cache.demand_avg_mshr_miss_latency::.cpu.inst 75294.697904                       # average overall mshr miss latency
system.l3cache.demand_avg_mshr_miss_latency::.cpu.data 69278.036069                       # average overall mshr miss latency
system.l3cache.demand_avg_mshr_miss_latency::total 69455.589113                       # average overall mshr miss latency
system.l3cache.overall_avg_mshr_miss_latency::.cpu.inst 75294.697904                       # average overall mshr miss latency
system.l3cache.overall_avg_mshr_miss_latency::.cpu.data 69278.036069                       # average overall mshr miss latency
system.l3cache.overall_avg_mshr_miss_latency::total 69455.589113                       # average overall mshr miss latency
system.l3cache.replacements                         2                       # number of replacements
system.membus.snoop_filter.tot_requests         27483                       # Total number of requests made to the snoop filter.
system.membus.snoop_filter.hit_single_requests            1                       # Number of requests hitting in the snoop filter with a single holder of the requested data.
system.membus.snoop_filter.hit_multi_requests            0                       # Number of requests hitting in the snoop filter with multiple (>1) holders of the requested data.
system.membus.snoop_filter.tot_snoops               0                       # Total number of snoops made to the snoop filter.
system.membus.snoop_filter.hit_single_snoops            0                       # Number of snoops hitting in the snoop filter with a single holder of the requested data.
system.membus.snoop_filter.hit_multi_snoops            0                       # Number of snoops hitting in the snoop filter with multiple (>1) holders of the requested data.
system.membus.pwrStateResidencyTicks::UNDEFINED  60811939000                       # Cumulative time (in ticks) in various power states
system.membus.trans_dist::ReadResp               1091                       # Transaction distribution
system.membus.trans_dist::CleanEvict                1                       # Transaction distribution
system.membus.trans_dist::ReadExReq             26391                       # Transaction distribution
system.membus.trans_dist::ReadExResp            26391                       # Transaction distribution
system.membus.trans_dist::ReadSharedReq          1091                       # Transaction distribution
system.membus.pkt_count_system.l3cache.mem_side::system.mem_ctrl.port        54965                       # Packet count per connected master and slave (bytes)
system.membus.pkt_count_system.l3cache.mem_side::total        54965                       # Packet count per connected master and slave (bytes)
system.membus.pkt_count::total                  54965                       # Packet count per connected master and slave (bytes)
system.membus.pkt_size_system.l3cache.mem_side::system.mem_ctrl.port      1758848                       # Cumulative packet size per connected master and slave (bytes)
system.membus.pkt_size_system.l3cache.mem_side::total      1758848                       # Cumulative packet size per connected master and slave (bytes)
system.membus.pkt_size::total                 1758848                       # Cumulative packet size per connected master and slave (bytes)
system.membus.snoops                                0                       # Total snoops (count)
system.membus.snoopTraffic                          0                       # Total snoop traffic (bytes)
system.membus.snoop_fanout::samples             27482                       # Request fanout histogram
system.membus.snoop_fanout::mean                    0                       # Request fanout histogram
system.membus.snoop_fanout::stdev                   0                       # Request fanout histogram
system.membus.snoop_fanout::underflows              0      0.00%      0.00% # Request fanout histogram
system.membus.snoop_fanout::0                   27482    100.00%    100.00% # Request fanout histogram
system.membus.snoop_fanout::1                       0      0.00%    100.00% # Request fanout histogram
system.membus.snoop_fanout::overflows               0      0.00%    100.00% # Request fanout histogram
system.membus.snoop_fanout::min_value               0                       # Request fanout histogram
system.membus.snoop_fanout::max_value               0                       # Request fanout histogram
system.membus.snoop_fanout::total               27482                       # Request fanout histogram
system.membus.reqLayer0.occupancy            13741500                       # Layer occupancy (ticks)
system.membus.reqLayer0.utilization               0.0                       # Layer utilization (%)
system.membus.respLayer0.occupancy           73851000                       # Layer occupancy (ticks)
system.membus.respLayer0.utilization              0.1                       # Layer utilization (%)

---------- End Simulation Statistics   ----------