
---------- Begin Simulation Statistics ----------
sim_seconds                                  0.052977                       # Number of seconds simulated
sim_ticks                                 52976980000                       # Number of ticks simulated
final_tick                                52976980000                       # Number of ticks from beginning of simulation (restored from checkpoints and never reset)
sim_freq                                 1000000000000                       # Frequency of simulated ticks
host_inst_rate                                 303395                       # Simulator instruction rate (inst/s)
host_op_rate                                   563493                       # Simulator op (including micro ops) rate (op/s)
host_tick_rate                              188823074                       # Simulator tick rate (ticks/s)
host_mem_usage                                 661524                       # Number of bytes of host memory used
host_seconds                                   280.56                       # Real time elapsed on the host
sim_insts                                    85121742                       # Number of instructions simulated
sim_ops                                     158095973                       # Number of ops (including micro ops) simulated
system.clk_domain.voltage_domain.voltage            1                       # Voltage in Volts
system.clk_domain.clock                           500                       # Clock period in ticks
system.mem_ctrl.pwrStateResidencyTicks::UNDEFINED  52976980000                       # Cumulative time (in ticks) in various power states
system.mem_ctrl.bytes_read::.cpu.inst           50496                       # Number of bytes read from this memory
system.mem_ctrl.bytes_read::.cpu.data         1706944                       # Number of bytes read from this memory
system.mem_ctrl.bytes_read::total             1757440                       # Number of bytes read from this memory
system.mem_ctrl.bytes_inst_read::.cpu.inst        50496                       # Number of instructions bytes read from this memory
system.mem_ctrl.bytes_inst_read::total          50496                       # Number of instructions bytes read from this memory
system.mem_ctrl.num_reads::.cpu.inst              789                       # Number of read requests responded to by this memory
system.mem_ctrl.num_reads::.cpu.data            26671                       # Number of read requests responded to by this memory
system.mem_ctrl.num_reads::total                27460                       # Number of read requests responded to by this memory
system.mem_ctrl.bw_read::.cpu.inst             953169                       # Total read bandwidth from this memory (bytes/s)
system.mem_ctrl.bw_read::.cpu.data           32220485                       # Total read bandwidth from this memory (bytes/s)
system.mem_ctrl.bw_read::total               33173654                       # Total read bandwidth from this memory (bytes/s)
system.mem_ctrl.bw_inst_read::.cpu.inst        953169                       # Instruction read bandwidth from this memory (bytes/s)
system.mem_ctrl.bw_inst_read::total            953169                       # Instruction read bandwidth from this memory (bytes/s)
system.mem_ctrl.bw_total::.cpu.inst            953169                       # Total bandwidth to/from this memory (bytes/s)
system.mem_ctrl.bw_total::.cpu.data          32220485                       # Total bandwidth to/from this memory (bytes/s)
system.mem_ctrl.bw_total::total              33173654                       # Total bandwidth to/from this memory (bytes/s)
system.mem_ctrl.avgPriority_.cpu.inst::samples       789.00                       # Average QoS priority value for accepted requests
system.mem_ctrl.avgPriority_.cpu.data::samples     26671.00                       # Average QoS priority value for accepted requests
system.mem_ctrl.priorityMinLatency       0.000000018750                       # per QoS priority minimum request to response latency (s)
system.mem_ctrl.priorityMaxLatency       0.000001107250                       # per QoS priority maximum request to response latency (s)
system.mem_ctrl.numReadWriteTurnArounds             0                       # Number of turnarounds from READ to WRITE
system.mem_ctrl.numWriteReadTurnArounds             0                       # Number of turnarounds from WRITE to READ
system.mem_ctrl.numStayReadState                60985                       # Number of times bus staying in READ state
system.mem_ctrl.numStayWriteState                   0                       # Number of times bus staying in WRITE state
system.mem_ctrl.readReqs                        27460                       # Number of read requests accepted
system.mem_ctrl.writeReqs                           0                       # Number of write requests accepted
system.mem_ctrl.readBursts                      27460                       # Number of DRAM read bursts, including those serviced by the write queue
system.mem_ctrl.writeBursts                         0                       # Number of DRAM write bursts, including those merged in the write queue
system.mem_ctrl.bytesReadDRAM                 1757440                       # Total number of bytes read from DRAM
system.mem_ctrl.bytesReadWrQ                        0                       # Total number of bytes read from write queue
system.mem_ctrl.bytesWritten                        0                       # Total number of bytes written to DRAM
system.mem_ctrl.bytesReadSys                  1757440                       # Total read bytes from the system interface side
system.mem_ctrl.bytesWrittenSys                     0                       # Total written bytes from the system interface side
system.mem_ctrl.servicedByWrQ                       0                       # Number of DRAM read bursts serviced by the write queue
system.mem_ctrl.mergedWrBursts                      0                       # Number of DRAM write bursts merged with an existing one
system.mem_ctrl.neitherReadNorWriteReqs             0                       # Number of requests that are neither read nor write
system.mem_ctrl.perBankRdBursts::0               1862                       # Per bank write bursts
system.mem_ctrl.perBankRdBursts::1               1675                       # Per bank write bursts
system.mem_ctrl.perBankRdBursts::2               1656                       # Per bank write bursts
system.mem_ctrl.perBankRdBursts::3               1678                       # Per bank write bursts
system.mem_ctrl.perBankRdBursts::4               1691                       # Per bank write bursts
system.mem_ctrl.perBankRdBursts::5               1679                       # Per bank write bursts
system.mem_ctrl.perBankRdBursts::6               1735                       # Per bank write bursts
system.mem_ctrl.perBankRdBursts::7               1762                       # Per bank write bursts
system.mem_ctrl.perBankRdBursts::8               1694                       # Per bank write bursts
system.mem_ctrl.perBankRdBursts::9               1590                       # Per bank write bursts
system.mem_ctrl.perBankRdBursts::10              1676                       # Per bank write bursts
system.mem_ctrl.perBankRdBursts::11              1653                       # Per bank write bursts
system.mem_ctrl.perBankRdBursts::12              1672                       # Per bank write bursts
system.mem_ctrl.perBankRdBursts::13              1816                       # Per bank write bursts
system.mem_ctrl.perBankRdBursts::14              1853                       # Per bank write bursts
system.mem_ctrl.perBankRdBursts::15              1768                       # Per bank write bursts
system.mem_ctrl.perBankWrBursts::0                  0                       # Per bank write bursts
system.mem_ctrl.perBankWrBursts::1                  0                       # Per bank write bursts
system.mem_ctrl.perBankWrBursts::2                  0                       # Per bank write bursts
system.mem_ctrl.perBankWrBursts::3                  0                       # Per bank write bursts
system.mem_ctrl.perBankWrBursts::4                  0                       # Per bank write bursts
system.mem_ctrl.perBankWrBursts::5                  0                       # Per bank write bursts
system.mem_ctrl.perBankWrBursts::6                  0                       # Per bank write bursts
system.mem_ctrl.perBankWrBursts::7                  0                       # Per bank write bursts
system.mem_ctrl.perBankWrBursts::8                  0                       # Per bank write bursts
system.mem_ctrl.perBankWrBursts::9                  0                       # Per bank write bursts
system.mem_ctrl.perBankWrBursts::10                 0                       # Per bank write bursts
system.mem_ctrl.perBankWrBursts::11                 0                       # Per bank write bursts
system.mem_ctrl.perBankWrBursts::12                 0                       # Per bank write bursts
system.mem_ctrl.perBankWrBursts::13                 0                       # Per bank write bursts
system.mem_ctrl.perBankWrBursts::14                 0                       # Per bank write bursts
system.mem_ctrl.perBankWrBursts::15                 0                       # Per bank write bursts
system.mem_ctrl.numRdRetry                          0                       # Number of times read queue was full causing retry
system.mem_ctrl.numWrRetry                          0                       # Number of times write queue was full causing retry
system.mem_ctrl.totGap                    52976896500                       # Total gap between requests
system.mem_ctrl.readPktSize::0                      0                       # Read request sizes (log2)
system.mem_ctrl.readPktSize::1                      0                       # Read request sizes (log2)
system.mem_ctrl.readPktSize::2                      0                       # Read request sizes (log2)
system.mem_ctrl.readPktSize::3                      0                       # Read request sizes (log2)
system.mem_ctrl.readPktSize::4                      0                       # Read request sizes (log2)
system.mem_ctrl.readPktSize::5                      0                       # Read request sizes (log2)
system.mem_ctrl.readPktSize::6                  27460                       # Read request sizes (log2)
system.mem_ctrl.writePktSize::0                     0                       # Write request sizes (log2)
system.mem_ctrl.writePktSize::1                     0                       # Write request sizes (log2)
system.mem_ctrl.writePktSize::2                     0                       # Write request sizes (log2)
system.mem_ctrl.writePktSize::3                     0                       # Write request sizes (log2)
system.mem_ctrl.writePktSize::4                     0                       # Write request sizes (log2)
system.mem_ctrl.writePktSize::5                     0                       # Write request sizes (log2)
system.mem_ctrl.writePktSize::6                     0                       # Write request sizes (log2)
system.mem_ctrl.rdQLenPdf::0                    27092                       # What read queue length does an incoming req see
system.mem_ctrl.rdQLenPdf::1                      301                       # What read queue length does an incoming req see
system.mem_ctrl.rdQLenPdf::2                       58                       # What read queue length does an incoming req see
system.mem_ctrl.rdQLenPdf::3                        7                       # What read queue length does an incoming req see
system.mem_ctrl.rdQLenPdf::4                        2                       # What read queue length does an incoming req see
system.mem_ctrl.rdQLenPdf::5                        0                       # What read queue length does an incoming req see
system.mem_ctrl.rdQLenPdf::6                        0                       # What read queue length does an incoming req see
system.mem_ctrl.rdQLenPdf::7                        0                       # What read queue length does an incoming req see
system.mem_ctrl.rdQLenPdf::8                        0                       # What read queue length does an incoming req see
system.mem_ctrl.rdQLenPdf::9                        0                       # What read queue length does an incoming req see
system.mem_ctrl.rdQLenPdf::10                       0                       # What read queue length does an incoming req see
system.mem_ctrl.rdQLenPdf::11                       0                       # What read queue length does an incoming req see
system.mem_ctrl.rdQLenPdf::12                       0                       # What read queue length does an incoming req see
system.mem_ctrl.rdQLenPdf::13                       0                       # What read queue length does an incoming req see
system.mem_ctrl.rdQLenPdf::14                       0                       # What read queue length does an incoming req see
system.mem_ctrl.rdQLenPdf::15                       0                       # What read queue length does an incoming req see
system.mem_ctrl.rdQLenPdf::16                       0                       # What read queue length does an incoming req see
system.mem_ctrl.rdQLenPdf::17                       0                       # What read queue length does an incoming req see
system.mem_ctrl.rdQLenPdf::18                       0                       # What read queue length does an incoming req see
system.mem_ctrl.rdQLenPdf::19                       0                       # What read queue length does an incoming req see
system.mem_ctrl.rdQLenPdf::20                       0                       # What read queue length does an incoming req see
system.mem_ctrl.rdQLenPdf::21                       0                       # What read queue length does an incoming req see
system.mem_ctrl.rdQLenPdf::22                       0                       # What read queue length does an incoming req see
system.mem_ctrl.rdQLenPdf::23                       0                       # What read queue length does an incoming req see
system.mem_ctrl.rdQLenPdf::24                       0                       # What read queue length does an incoming req see
system.mem_ctrl.rdQLenPdf::25                       0                       # What read queue length does an incoming req see
system.mem_ctrl.rdQLenPdf::26                       0                       # What read queue length does an incoming req see
system.mem_ctrl.rdQLenPdf::27                       0                       # What read queue length does an incoming req see
system.mem_ctrl.rdQLenPdf::28                       0                       # What read queue length does an incoming req see
system.mem_ctrl.rdQLenPdf::29                       0                       # What read queue length does an incoming req see
system.mem_ctrl.rdQLenPdf::30                       0                       # What read queue length does an incoming req see
system.mem_ctrl.rdQLenPdf::31                       0                       # What read queue length does an incoming req see
system.mem_ctrl.wrQLenPdf::0                        0                       # What write queue length does an incoming req see
system.mem_ctrl.wrQLenPdf::1                        0                       # What write queue length does an incoming req see
system.mem_ctrl.wrQLenPdf::2                        0                       # What write queue length does an incoming req see
system.mem_ctrl.wrQLenPdf::3                        0                       # What write queue length does an incoming req see
system.mem_ctrl.wrQLenPdf::4                        0                       # What write queue length does an incoming req see
system.mem_ctrl.wrQLenPdf::5                        0                       # What write queue length does an incoming req see
system.mem_ctrl.wrQLenPdf::6                        0                       # What write queue length does an incoming req see
system.mem_ctrl.wrQLenPdf::7                        0                       # What write queue length does an incoming req see
system.mem_ctrl.wrQLenPdf::8                        0                       # What write queue length does an incoming req see
system.mem_ctrl.wrQLenPdf::9                        0                       # What write queue length does an incoming req see
system.mem_ctrl.wrQLenPdf::10                       0                       # What write queue length does an incoming req see
system.mem_ctrl.wrQLenPdf::11                       0                       # What write queue length does an incoming req see
system.mem_ctrl.wrQLenPdf::12                       0                       # What write queue length does an incoming req see
system.mem_ctrl.wrQLenPdf::13                       0                       # What write queue length does an incoming req see
system.mem_ctrl.wrQLenPdf::14                       0                       # What write queue length does an incoming req see
system.mem_ctrl.wrQLenPdf::15                       0                       # What write queue length does an incoming req see
system.mem_ctrl.wrQLenPdf::16                       0                       # What write queue length does an incoming req see
system.mem_ctrl.wrQLenPdf::17                       0                       # What write queue length does an incoming req see
system.mem_ctrl.wrQLenPdf::18                       0                       # What write queue length does an incoming req see
system.mem_ctrl.wrQLenPdf::19                       0                       # What write queue length does an incoming req see
system.mem_ctrl.wrQLenPdf::20                       0                       # What write queue length does an incoming req see
system.mem_ctrl.wrQLenPdf::21                       0                       # What write queue length does an incoming req see
system.mem_ctrl.wrQLenPdf::22                       0                       # What write queue length does an incoming req see
system.mem_ctrl.wrQLenPdf::23                       0                       # What write queue length does an incoming req see
system.mem_ctrl.wrQLenPdf::24                       0                       # What write queue length does an incoming req see
system.mem_ctrl.wrQLenPdf::25                       0                       # What write queue length does an incoming req see
system.mem_ctrl.wrQLenPdf::26                       0                       # What write queue length does an incoming req see
system.mem_ctrl.wrQLenPdf::27                       0                       # What write queue length does an incoming req see
system.mem_ctrl.wrQLenPdf::28                       0                       # What write queue length does an incoming req see
system.mem_ctrl.wrQLenPdf::29                       0                       # What write queue length does an incoming req see
system.mem_ctrl.wrQLenPdf::30                       0                       # What write queue length does an incoming req see
system.mem_ctrl.wrQLenPdf::31                       0                       # What write queue length does an incoming req see
system.mem_ctrl.wrQLenPdf::32                       0                       # What write queue length does an incoming req see
system.mem_ctrl.wrQLenPdf::33                       0                       # What write queue length does an incoming req see
system.mem_ctrl.wrQLenPdf::34                       0                       # What write queue length does an incoming req see
system.mem_ctrl.wrQLenPdf::35                       0                       # What write queue length does an incoming req see
system.mem_ctrl.wrQLenPdf::36                       0                       # What write queue length does an incoming req see
system.mem_ctrl.wrQLenPdf::37                       0                       # What write queue length does an incoming req see
system.mem_ctrl.wrQLenPdf::38                       0                       # What write queue length does an incoming req see
system.mem_ctrl.wrQLenPdf::39                       0                       # What write queue length does an incoming req see
system.mem_ctrl.wrQLenPdf::40                       0                       # What write queue length does an incoming req see
system.mem_ctrl.wrQLenPdf::41                       0                       # What write queue length does an incoming req see
system.mem_ctrl.wrQLenPdf::42                       0                       # What write queue length does an incoming req see
system.mem_ctrl.wrQLenPdf::43                       0                       # What write queue length does an incoming req see
system.mem_ctrl.wrQLenPdf::44                       0                       # What write queue length does an incoming req see
system.mem_ctrl.wrQLenPdf::45                       0                       # What write queue length does an incoming req see
system.mem_ctrl.wrQLenPdf::46                       0                       # What write queue length does an incoming req see
system.mem_ctrl.wrQLenPdf::47                       0                       # What write queue length does an incoming req see
system.mem_ctrl.wrQLenPdf::48                       0                       # What write queue length does an incoming req see
system.mem_ctrl.wrQLenPdf::49                       0                       # What write queue length does an incoming req see
system.mem_ctrl.wrQLenPdf::50                       0                       # What write queue length does an incoming req see
system.mem_ctrl.wrQLenPdf::51                       0                       # What write queue length does an incoming req see
system.mem_ctrl.wrQLenPdf::52                       0                       # What write queue length does an incoming req see
system.mem_ctrl.wrQLenPdf::53                       0                       # What write queue length does an incoming req see
system.mem_ctrl.wrQLenPdf::54                       0                       # What write queue length does an incoming req see
system.mem_ctrl.wrQLenPdf::55                       0                       # What write queue length does an incoming req see
system.mem_ctrl.wrQLenPdf::56                       0                       # What write queue length does an incoming req see
system.mem_ctrl.wrQLenPdf::57                       0                       # What write queue length does an incoming req see
system.mem_ctrl.wrQLenPdf::58                       0                       # What write queue length does an incoming req see
system.mem_ctrl.wrQLenPdf::59                       0                       # What write queue length does an incoming req see
system.mem_ctrl.wrQLenPdf::60                       0                       # What write queue length does an incoming req see
system.mem_ctrl.wrQLenPdf::61                       0                       # What write queue length does an incoming req see
system.mem_ctrl.wrQLenPdf::62                       0                       # What write queue length does an incoming req see
system.mem_ctrl.wrQLenPdf::63                       0                       # What write queue length does an incoming req see
system.mem_ctrl.bytesPerActivate::samples         6569                       # Bytes accessed per row activation
system.mem_ctrl.bytesPerActivate::mean     267.213883                       # Bytes accessed per row activation
system.mem_ctrl.bytesPerActivate::gmean    250.529917                       # Bytes accessed per row activation
system.mem_ctrl.bytesPerActivate::stdev    101.707173                       # Bytes accessed per row activation
system.mem_ctrl.bytesPerActivate::0-127           332      5.05%      5.05% # Bytes accessed per row activation
system.mem_ctrl.bytesPerActivate::128-255          320      4.87%      9.93% # Bytes accessed per row activation
system.mem_ctrl.bytesPerActivate::256-383         5780     87.99%     97.91% # Bytes accessed per row activation
system.mem_ctrl.bytesPerActivate::384-511           33      0.50%     98.42% # Bytes accessed per row activation
system.mem_ctrl.bytesPerActivate::512-639           19      0.29%     98.71% # Bytes accessed per row activation
system.mem_ctrl.bytesPerActivate::640-767            9      0.14%     98.84% # Bytes accessed per row activation
system.mem_ctrl.bytesPerActivate::768-895            6      0.09%     98.93% # Bytes accessed per row activation
system.mem_ctrl.bytesPerActivate::896-1023            5      0.08%     99.01% # Bytes accessed per row activation
system.mem_ctrl.bytesPerActivate::1024-1151           65      0.99%    100.00% # Bytes accessed per row activation
system.mem_ctrl.bytesPerActivate::total          6569                       # Bytes accessed per row activation
system.mem_ctrl.masterReadBytes::.cpu.inst        50496                       # Per-master bytes read from memory
system.mem_ctrl.masterReadBytes::.cpu.data      1706944                       # Per-master bytes read from memory
system.mem_ctrl.masterReadRate::.cpu.inst 953168.715921519091                       # Per-master bytes read from memory rate (Bytes/sec)
system.mem_ctrl.masterReadRate::.cpu.data 32220485.199420578778                       # Per-master bytes read from memory rate (Bytes/sec)
system.mem_ctrl.masterReadAccesses::.cpu.inst          789                       # Per-master read serviced memory accesses
system.mem_ctrl.masterReadAccesses::.cpu.data        26671                       # Per-master read serviced memory accesses
system.mem_ctrl.masterReadTotalLat::.cpu.inst     34949500                       # Per-master read total memory access latency
system.mem_ctrl.masterReadTotalLat::.cpu.data    900932500                       # Per-master read total memory access latency
system.mem_ctrl.masterReadAvgLat::.cpu.inst     44295.94                       # Per-master read average memory access latency
system.mem_ctrl.masterReadAvgLat::.cpu.data     33779.48                       # Per-master read average memory access latency
system.mem_ctrl.totQLat                     421007000                       # Total ticks spent queuing
system.mem_ctrl.totMemAccLat                935882000                       # Total ticks spent from burst creation until serviced by the DRAM
system.mem_ctrl.totBusLat                   137300000                       # Total ticks spent in databus transfers
system.mem_ctrl.avgQLat                      15331.65                       # Average queueing delay per DRAM burst
system.mem_ctrl.avgBusLat                     5000.00                       # Average bus latency per DRAM burst
system.mem_ctrl.avgMemAccLat                 34081.65                       # Average memory access latency per DRAM burst
system.mem_ctrl.avgRdBW                         33.17                       # Average DRAM read bandwidth in MiByte/s
system.mem_ctrl.avgWrBW                          0.00                       # Average achieved write bandwidth in MiByte/s
system.mem_ctrl.avgRdBWSys                      33.17                       # Average system read bandwidth in MiByte/s
system.mem_ctrl.avgWrBWSys                       0.00                       # Average system write bandwidth in MiByte/s
system.mem_ctrl.peakBW                       12800.00                       # Theoretical peak bandwidth in MiByte/s
system.mem_ctrl.busUtil                          0.26                       # Data bus utilization in percentage
system.mem_ctrl.busUtilRead                      0.26                       # Data bus utilization in percentage for reads
system.mem_ctrl.busUtilWrite                     0.00                       # Data bus utilization in percentage for writes
system.mem_ctrl.avgRdQLen                        1.00                       # Average read queue length when enqueuing
system.mem_ctrl.avgWrQLen                        0.00                       # Average write queue length when enqueuing
system.mem_ctrl.readRowHits                     20881                       # Number of row buffer hits during reads
system.mem_ctrl.writeRowHits                        0                       # Number of row buffer hits during writes
system.mem_ctrl.readRowHitRate                  76.04                       # Row buffer hit rate for reads
system.mem_ctrl.writeRowHitRate                   nan                       # Row buffer hit rate for writes
system.mem_ctrl.avgGap                     1929238.77                       # Average gap between requests
system.mem_ctrl.pageHitRate                     76.04                       # Row buffer hit rate, read and write combined
system.mem_ctrl_0.actEnergy                  23669100                       # Energy for activate commands per rank (pJ)
system.mem_ctrl_0.preEnergy                  12557655                       # Energy for precharge commands per rank (pJ)
system.mem_ctrl_0.readEnergy                 98089320                       # Energy for read commands per rank (pJ)
system.mem_ctrl_0.writeEnergy                       0                       # Energy for write commands per rank (pJ)
system.mem_ctrl_0.refreshEnergy          1870964160.000000                       # Energy for refresh commands per rank (pJ)
system.mem_ctrl_0.actBackEnergy             517476780                       # Energy for active background per rank (pJ)
system.mem_ctrl_0.preBackEnergy              40820640                       # Energy for precharge background per rank (pJ)
system.mem_ctrl_0.actPowerDownEnergy       9282206610                       # Energy for active power-down per rank (pJ)
system.mem_ctrl_0.prePowerDownEnergy        811551840                       # Energy for precharge power-down per rank (pJ)
system.mem_ctrl_0.selfRefreshEnergy        7033954620                       # Energy for self refresh per rank (pJ)
system.mem_ctrl_0.totalEnergy             19691481405                       # Total energy per rank (pJ)
system.mem_ctrl_0.averagePower             371.698829                       # Core power per rank (mW)
system.mem_ctrl_0.totalIdleTime           51734737000                       # Total Idle time Per DRAM Rank
system.mem_ctrl_0.memoryStateTime::IDLE      23202500                       # Time in different power states
system.mem_ctrl_0.memoryStateTime::REF      791440000                       # Time in different power states
system.mem_ctrl_0.memoryStateTime::SREF   29266302500                       # Time in different power states
system.mem_ctrl_0.memoryStateTime::PRE_PDN   2113303000                       # Time in different power states
system.mem_ctrl_0.memoryStateTime::ACT      427560250                       # Time in different power states
system.mem_ctrl_0.memoryStateTime::ACT_PDN  20355171750                       # Time in different power states
system.mem_ctrl_1.actEnergy                  23304960                       # Energy for activate commands per rank (pJ)
system.mem_ctrl_1.preEnergy                  12371700                       # Energy for precharge commands per rank (pJ)
system.mem_ctrl_1.readEnergy                 97975080                       # Energy for read commands per rank (pJ)
system.mem_ctrl_1.writeEnergy                       0                       # Energy for write commands per rank (pJ)
system.mem_ctrl_1.refreshEnergy          1875266640.000000                       # Energy for refresh commands per rank (pJ)
system.mem_ctrl_1.actBackEnergy             517817070                       # Energy for active background per rank (pJ)
system.mem_ctrl_1.preBackEnergy              44107200                       # Energy for precharge background per rank (pJ)
system.mem_ctrl_1.actPowerDownEnergy       9173910600                       # Energy for active power-down per rank (pJ)
system.mem_ctrl_1.prePowerDownEnergy        923397600                       # Energy for precharge power-down per rank (pJ)
system.mem_ctrl_1.selfRefreshEnergy        7035382920                       # Energy for self refresh per rank (pJ)
system.mem_ctrl_1.totalEnergy             19703589780                       # Total energy per rank (pJ)
system.mem_ctrl_1.averagePower             371.927388                       # Core power per rank (mW)
system.mem_ctrl_1.totalIdleTime           51726096000                       # Total Idle time Per DRAM Rank
system.mem_ctrl_1.memoryStateTime::IDLE      31414500                       # Time in different power states
system.mem_ctrl_1.memoryStateTime::REF      793260000                       # Time in different power states
system.mem_ctrl_1.memoryStateTime::SREF   29203524750                       # Time in different power states
system.mem_ctrl_1.memoryStateTime::PRE_PDN   2404607250                       # Time in different power states
system.mem_ctrl_1.memoryStateTime::ACT      425936750                       # Time in different power states
system.mem_ctrl_1.memoryStateTime::ACT_PDN  20118236750                       # Time in different power states
system.pwrStateResidencyTicks::UNDEFINED  52976980000                       # Cumulative time (in ticks) in various power states
system.cpu.branchPred.lookups                21806510                       # Number of BP lookups
system.cpu.branchPred.condPredicted          21806510                       # Number of conditional branches predicted
system.cpu.branchPred.condIncorrect            461541                       # Number of conditional branches incorrect
system.cpu.branchPred.BTBLookups             18768666                       # Number of BTB lookups
system.cpu.branchPred.BTBHits                       0                       # Number of BTB hits
system.cpu.branchPred.BTBCorrect                    0                       # Number of correct BTB predictions (this stat may not work properly.
system.cpu.branchPred.BTBHitPct              0.000000                       # BTB Hit Percentage
system.cpu.branchPred.usedRAS                  717444                       # Number of times the RAS was used to get a target.
system.cpu.branchPred.RASInCorrect                630                       # Number of incorrect RAS predictions.
system.cpu.branchPred.indirectLookups        18768666                       # Number of indirect predictor lookups.
system.cpu.branchPred.indirectHits            8105250                       # Number of indirect target hits.
system.cpu.branchPred.indirectMisses         10663416                       # Number of indirect misses.
system.cpu.branchPredindirectMispredicted       384596                       # Number of mispredicted indirect branches.
system.cpu.dtb.walker.pwrStateResidencyTicks::UNDEFINED  52976980000                       # Cumulative time (in ticks) in various power states
system.cpu.dtb.rdAccesses                    18986681                       # TLB accesses on read requests
system.cpu.dtb.wrAccesses                    12010808                       # TLB accesses on write requests
system.cpu.dtb.rdMisses                        101436                       # TLB misses on read requests
system.cpu.dtb.wrMisses                           529                       # TLB misses on write requests
system.cpu.apic_clk_domain.clock                 8000                       # Clock period in ticks
system.cpu.interrupts.pwrStateResidencyTicks::UNDEFINED  52976980000                       # Cumulative time (in ticks) in various power states
system.cpu.itb.walker.pwrStateResidencyTicks::UNDEFINED  52976980000                       # Cumulative time (in ticks) in various power states
system.cpu.itb.rdAccesses                           0                       # TLB accesses on read requests
system.cpu.itb.wrAccesses                    13170011                       # TLB accesses on write requests
system.cpu.itb.rdMisses                             0                       # TLB misses on read requests
system.cpu.itb.wrMisses                           151                       # TLB misses on write requests
system.cpu.workload.numSyscalls                    86                       # Number of system calls
system.cpu.pwrStateResidencyTicks::ON     52976980000                       # Cumulative time (in ticks) in various power states
system.cpu.numCycles                        105953961                       # number of cpu cycles simulated
system.cpu.numWorkItemsStarted                      0                       # number of work items this cpu started
system.cpu.numWorkItemsCompleted                    0                       # number of work items this cpu completed
system.cpu.fetch.icacheStallCycles             475676                       # Number of cycles fetch is stalled on an Icache miss
system.cpu.fetch.Insts                       94612565                       # Number of instructions fetch has processed
system.cpu.fetch.Branches                    21806510                       # Number of branches that fetch encountered
system.cpu.fetch.predictedBranches            8822694                       # Number of branches that fetch has predicted taken
system.cpu.fetch.Cycles                     104971750                       # Number of cycles fetch has run and was not squashing or blocked
system.cpu.fetch.SquashCycles                  923974                       # Number of cycles fetch has spent squashing
system.cpu.fetch.MiscStallCycles                   67                       # Number of cycles fetch has spent waiting on interrupts, or bad addresses, or out of MSHRs
system.cpu.fetch.PendingTrapStallCycles           851                       # Number of stall cycles due to pending traps
system.cpu.fetch.PendingQuiesceStallCycles           18                       # Number of stall cycles due to pending quiesce instructions
system.cpu.fetch.CacheLines                  13169917                       # Number of cache lines fetched
system.cpu.fetch.IcacheSquashes                   482                       # Number of outstanding Icache misses that were squashed
system.cpu.fetch.rateDist::samples          105910349                       # Number of instructions fetched each cycle (Total)
system.cpu.fetch.rateDist::mean              1.653440                       # Number of instructions fetched each cycle (Total)
system.cpu.fetch.rateDist::stdev             0.707273                       # Number of instructions fetched each cycle (Total)
system.cpu.fetch.rateDist::underflows               0      0.00%      0.00% # Number of instructions fetched each cycle (Total)
system.cpu.fetch.rateDist::0                 14497976     13.69%     13.69% # Number of instructions fetched each cycle (Total)
system.cpu.fetch.rateDist::1                  7708369      7.28%     20.97% # Number of instructions fetched each cycle (Total)
system.cpu.fetch.rateDist::2                 83704004     79.03%    100.00% # Number of instructions fetched each cycle (Total)
system.cpu.fetch.rateDist::overflows                0      0.00%    100.00% # Number of instructions fetched each cycle (Total)
system.cpu.fetch.rateDist::min_value                0                       # Number of instructions fetched each cycle (Total)
system.cpu.fetch.rateDist::max_value                2                       # Number of instructions fetched each cycle (Total)
system.cpu.fetch.rateDist::total            105910349                       # Number of instructions fetched each cycle (Total)
system.cpu.fetch.branchRate                  0.205811                       # Number of branch fetches per cycle
system.cpu.fetch.rate                        0.892959                       # Number of inst fetches per cycle
system.cpu.decode.IdleCycles                  3436871                       # Number of cycles decode is idle
system.cpu.decode.BlockedCycles              12733424                       # Number of cycles decode is blocked
system.cpu.decode.RunCycles                  87317634                       # Number of cycles decode is running
system.cpu.decode.UnblockCycles               1960433                       # Number of cycles decode is unblocking
system.cpu.decode.SquashCycles                 461987                       # Number of cycles decode is squashing
system.cpu.decode.DecodedInsts              171020186                       # Number of instructions handled by decode
system.cpu.decode.SquashedInsts               1697617                       # Number of squashed instructions handled by decode
system.cpu.rename.SquashCycles                 461987                       # Number of cycles rename is squashing
system.cpu.rename.IdleCycles                  5786379                       # Number of cycles rename is idle
system.cpu.rename.BlockCycles                 7186964                       # Number of cycles rename is blocking
system.cpu.rename.serializeStallCycles           4590                       # count of cycles rename stalled for serializing inst
system.cpu.rename.RunCycles                  86775351                       # Number of cycles rename is running
system.cpu.rename.UnblockCycles               5695078                       # Number of cycles rename is unblocking
system.cpu.rename.RenamedInsts              169226002                       # Number of instructions processed by rename
system.cpu.rename.SquashedInsts                888281                       # Number of squashed instructions processed by rename
system.cpu.rename.ROBFullEvents                   180                       # Number of times rename has blocked due to ROB full
system.cpu.rename.IQFullEvents                 578856                       # Number of times rename has blocked due to IQ full
system.cpu.rename.LQFullEvents                  23889                       # Number of times rename has blocked due to LQ full
system.cpu.rename.SQFullEvents                4124227                       # Number of times rename has blocked due to SQ full
system.cpu.rename.FullRegisterEvents           105001                       # Number of times there has been no free registers
system.cpu.rename.RenamedOperands           189952965                       # Number of destination operands rename has renamed
system.cpu.rename.RenameLookups             431174383                       # Number of register rename lookups that rename has made
system.cpu.rename.int_rename_lookups        248889401                       # Number of integer rename lookups
system.cpu.rename.fp_rename_lookups            304390                       # Number of floating rename lookups
system.cpu.rename.CommittedMaps             177569425                       # Number of HB maps that are committed
system.cpu.rename.UndoneMaps                 12383540                       # Number of HB maps that are undone due to squashing
system.cpu.rename.serializingInsts                102                       # count of serializing insts renamed
system.cpu.rename.tempSerializingInsts            100                       # count of temporary serializing insts renamed
system.cpu.rename.skidInsts                   2922689                       # count of insts added to the skid buffer
system.cpu.memDep0.insertedLoads             19535014                       # Number of loads inserted to the mem dependence unit.
system.cpu.memDep0.insertedStores            12408453                       # Number of stores inserted to the mem dependence unit.
system.cpu.memDep0.conflictingLoads           1049502                       # Number of conflicting loads.
system.cpu.memDep0.conflictingStores           432558                       # Number of conflicting stores.
system.cpu.iq.iqInstsAdded                  167430743                       # Number of instructions added to the IQ (excludes non-spec)
system.cpu.iq.iqNonSpecInstsAdded                 355                       # Number of non-speculative instructions added to the IQ
system.cpu.iq.iqInstsIssued                 164087507                       # Number of instructions issued
system.cpu.iq.iqSquashedInstsIssued            952955                       # Number of squashed instructions issued
system.cpu.iq.iqSquashedInstsExamined         9335124                       # Number of squashed instructions iterated over during squash; mainly for profiling
system.cpu.iq.iqSquashedOperandsExamined     12138101                       # Number of squashed operands that are examined and possibly removed from graph
system.cpu.iq.iqSquashedNonSpecRemoved            269                       # Number of squashed non-spec instructions that were removed
system.cpu.iq.issued_per_cycle::samples     105910349                       # Number of insts issued each cycle
system.cpu.iq.issued_per_cycle::mean         1.549306                       # Number of insts issued each cycle
system.cpu.iq.issued_per_cycle::stdev        0.761094                       # Number of insts issued each cycle
system.cpu.iq.issued_per_cycle::underflows            0      0.00%      0.00% # Number of insts issued each cycle
system.cpu.iq.issued_per_cycle::0            17564950     16.58%     16.58% # Number of insts issued each cycle
system.cpu.iq.issued_per_cycle::1            12603291     11.90%     28.48% # Number of insts issued each cycle
system.cpu.iq.issued_per_cycle::2            75742108     71.52%    100.00% # Number of insts issued each cycle
system.cpu.iq.issued_per_cycle::overflows            0      0.00%    100.00% # Number of insts issued each cycle
system.cpu.iq.issued_per_cycle::min_value            0                       # Number of insts issued each cycle
system.cpu.iq.issued_per_cycle::max_value            2                       # Number of insts issued each cycle
system.cpu.iq.issued_per_cycle::total       105910349                       # Number of insts issued each cycle
system.cpu.iq.fu_full::No_OpClass                   0      0.00%      0.00% # attempts to use FU when none available
system.cpu.iq.fu_full::IntAlu                       0      0.00%      0.00% # attempts to use FU when none available
system.cpu.iq.fu_full::IntMult                      0      0.00%      0.00% # attempts to use FU when none available
system.cpu.iq.fu_full::IntDiv                       0      0.00%      0.00% # attempts to use FU when none available
system.cpu.iq.fu_full::FloatAdd                     0      0.00%      0.00% # attempts to use FU when none available
system.cpu.iq.fu_full::FloatCmp                     0      0.00%      0.00% # attempts to use FU when none available
system.cpu.iq.fu_full::FloatCvt                     0      0.00%      0.00% # attempts to use FU when none available
system.cpu.iq.fu_full::FloatMult                    0      0.00%      0.00% # attempts to use FU when none available
system.cpu.iq.fu_full::FloatMultAcc                 0      0.00%      0.00% # attempts to use FU when none available
system.cpu.iq.fu_full::FloatDiv                     0      0.00%      0.00% # attempts to use FU when none available
system.cpu.iq.fu_full::FloatMisc                    0      0.00%      0.00% # attempts to use FU when none available
system.cpu.iq.fu_full::FloatSqrt                    0      0.00%      0.00% # attempts to use FU when none available
system.cpu.iq.fu_full::SimdAdd                    247      0.01%      0.01% # attempts to use FU when none available
system.cpu.iq.fu_full::SimdAddAcc                   0      0.00%      0.01% # attempts to use FU when none available
system.cpu.iq.fu_full::SimdAlu                     68      0.00%      0.01% # attempts to use FU when none available
system.cpu.iq.fu_full::SimdCmp                      0      0.00%      0.01% # attempts to use FU when none available
system.cpu.iq.fu_full::SimdCvt                     43      0.00%      0.01% # attempts to use FU when none available
system.cpu.iq.fu_full::SimdMisc                   152      0.00%      0.01% # attempts to use FU when none available
system.cpu.iq.fu_full::SimdMult                     0      0.00%      0.01% # attempts to use FU when none available
system.cpu.iq.fu_full::SimdMultAcc                  0      0.00%      0.01% # attempts to use FU when none available
system.cpu.iq.fu_full::SimdShift                  120      0.00%      0.01% # attempts to use FU when none available
system.cpu.iq.fu_full::SimdShiftAcc                 0      0.00%      0.01% # attempts to use FU when none available
system.cpu.iq.fu_full::SimdSqrt                     0      0.00%      0.01% # attempts to use FU when none available
system.cpu.iq.fu_full::SimdFloatAdd                 0      0.00%      0.01% # attempts to use FU when none available
system.cpu.iq.fu_full::SimdFloatAlu                 0      0.00%      0.01% # attempts to use FU when none available
system.cpu.iq.fu_full::SimdFloatCmp                 0      0.00%      0.01% # attempts to use FU when none available
system.cpu.iq.fu_full::SimdFloatCvt                 0      0.00%      0.01% # attempts to use FU when none available
system.cpu.iq.fu_full::SimdFloatDiv                 0      0.00%      0.01% # attempts to use FU when none available
system.cpu.iq.fu_full::SimdFloatMisc                0      0.00%      0.01% # attempts to use FU when none available
system.cpu.iq.fu_full::SimdFloatMult                0      0.00%      0.01% # attempts to use FU when none available
system.cpu.iq.fu_full::SimdFloatMultAcc             0      0.00%      0.01% # attempts to use FU when none available
system.cpu.iq.fu_full::SimdFloatSqrt                0      0.00%      0.01% # attempts to use FU when none available
system.cpu.iq.fu_full::SimdAes                      0      0.00%      0.01% # attempts to use FU when none available
system.cpu.iq.fu_full::SimdAesMix                   0      0.00%      0.01% # attempts to use FU when none available
system.cpu.iq.fu_full::SimdSha1Hash                 0      0.00%      0.01% # attempts to use FU when none available
system.cpu.iq.fu_full::SimdSha1Hash2                0      0.00%      0.01% # attempts to use FU when none available
system.cpu.iq.fu_full::SimdSha256Hash               0      0.00%      0.01% # attempts to use FU when none available
system.cpu.iq.fu_full::SimdSha256Hash2              0      0.00%      0.01% # attempts to use FU when none available
system.cpu.iq.fu_full::SimdShaSigma2                0      0.00%      0.01% # attempts to use FU when none available
system.cpu.iq.fu_full::SimdShaSigma3                0      0.00%      0.01% # attempts to use FU when none available
system.cpu.iq.fu_full::MemRead                3100753     73.20%     73.21% # attempts to use FU when none available
system.cpu.iq.fu_full::MemWrite               1134854     26.79%    100.00% # attempts to use FU when none available
system.cpu.iq.fu_full::FloatMemRead                 0      0.00%    100.00% # attempts to use FU when none available
system.cpu.iq.fu_full::FloatMemWrite                0      0.00%    100.00% # attempts to use FU when none available
system.cpu.iq.fu_full::IprAccess                    0      0.00%    100.00% # attempts to use FU when none available
system.cpu.iq.fu_full::InstPrefetch                 0      0.00%    100.00% # attempts to use FU when none available
system.cpu.iq.FU_type_0::No_OpClass            258793      0.16%      0.16% # Type of FU issued
system.cpu.iq.FU_type_0::IntAlu             132055329     80.48%     80.64% # Type of FU issued
system.cpu.iq.FU_type_0::IntMult               395069      0.24%     80.88% # Type of FU issued
system.cpu.iq.FU_type_0::IntDiv                    30      0.00%     80.88% # Type of FU issued
system.cpu.iq.FU_type_0::FloatAdd              100016      0.06%     80.94% # Type of FU issued
system.cpu.iq.FU_type_0::FloatCmp                   0      0.00%     80.94% # Type of FU issued
system.cpu.iq.FU_type_0::FloatCvt                   0      0.00%     80.94% # Type of FU issued
system.cpu.iq.FU_type_0::FloatMult                  0      0.00%     80.94% # Type of FU issued
system.cpu.iq.FU_type_0::FloatMultAcc               0      0.00%     80.94% # Type of FU issued
system.cpu.iq.FU_type_0::FloatDiv                   0      0.00%     80.94% # Type of FU issued
system.cpu.iq.FU_type_0::FloatMisc                  0      0.00%     80.94% # Type of FU issued
system.cpu.iq.FU_type_0::FloatSqrt                  0      0.00%     80.94% # Type of FU issued
system.cpu.iq.FU_type_0::SimdAdd                  375      0.00%     80.94% # Type of FU issued
system.cpu.iq.FU_type_0::SimdAddAcc                 0      0.00%     80.94% # Type of FU issued
system.cpu.iq.FU_type_0::SimdAlu                  106      0.00%     80.94% # Type of FU issued
system.cpu.iq.FU_type_0::SimdCmp                    6      0.00%     80.94% # Type of FU issued
system.cpu.iq.FU_type_0::SimdCvt                  151      0.00%     80.94% # Type of FU issued
system.cpu.iq.FU_type_0::SimdMisc                 262      0.00%     80.94% # Type of FU issued
system.cpu.iq.FU_type_0::SimdMult                   0      0.00%     80.94% # Type of FU issued
system.cpu.iq.FU_type_0::SimdMultAcc                0      0.00%     80.94% # Type of FU issued
system.cpu.iq.FU_type_0::SimdShift                186      0.00%     80.94% # Type of FU issued
system.cpu.iq.FU_type_0::SimdShiftAcc               0      0.00%     80.94% # Type of FU issued
system.cpu.iq.FU_type_0::SimdSqrt                   0      0.00%     80.94% # Type of FU issued
system.cpu.iq.FU_type_0::SimdFloatAdd               0      0.00%     80.94% # Type of FU issued
system.cpu.iq.FU_type_0::SimdFloatAlu               0      0.00%     80.94% # Type of FU issued
system.cpu.iq.FU_type_0::SimdFloatCmp               0      0.00%     80.94% # Type of FU issued
system.cpu.iq.FU_type_0::SimdFloatCvt               0      0.00%     80.94% # Type of FU issued
system.cpu.iq.FU_type_0::SimdFloatDiv               0      0.00%     80.94% # Type of FU issued
system.cpu.iq.FU_type_0::SimdFloatMisc              0      0.00%     80.94% # Type of FU issued
system.cpu.iq.FU_type_0::SimdFloatMult              0      0.00%     80.94% # Type of FU issued
system.cpu.iq.FU_type_0::SimdFloatMultAcc            0      0.00%     80.94% # Type of FU issued
system.cpu.iq.FU_type_0::SimdFloatSqrt              0      0.00%     80.94% # Type of FU issued
system.cpu.iq.FU_type_0::SimdAes                    0      0.00%     80.94% # Type of FU issued
system.cpu.iq.FU_type_0::SimdAesMix                 0      0.00%     80.94% # Type of FU issued
system.cpu.iq.FU_type_0::SimdSha1Hash               0      0.00%     80.94% # Type of FU issued
system.cpu.iq.FU_type_0::SimdSha1Hash2              0      0.00%     80.94% # Type of FU issued
system.cpu.iq.FU_type_0::SimdSha256Hash             0      0.00%     80.94% # Type of FU issued
system.cpu.iq.FU_type_0::SimdSha256Hash2            0      0.00%     80.94% # Type of FU issued
system.cpu.iq.FU_type_0::SimdShaSigma2              0      0.00%     80.94% # Type of FU issued
system.cpu.iq.FU_type_0::SimdShaSigma3              0      0.00%     80.94% # Type of FU issued
system.cpu.iq.FU_type_0::MemRead             18792334     11.45%     92.39% # Type of FU issued
system.cpu.iq.FU_type_0::MemWrite            11884090      7.24%     99.63% # Type of FU issued
system.cpu.iq.FU_type_0::FloatMemRead          300191      0.18%     99.82% # Type of FU issued
system.cpu.iq.FU_type_0::FloatMemWrite         300569      0.18%    100.00% # Type of FU issued
system.cpu.iq.FU_type_0::IprAccess                  0      0.00%    100.00% # Type of FU issued
system.cpu.iq.FU_type_0::InstPrefetch               0      0.00%    100.00% # Type of FU issued
system.cpu.iq.FU_type_0::total              164087507                       # Type of FU issued
system.cpu.iq.rate                           1.548668                       # Inst issue rate
system.cpu.iq.fu_busy_cnt                     4236237                       # FU busy when requested
system.cpu.iq.fu_busy_rate                   0.025817                       # FU busy rate (busy events/executed inst)
system.cpu.iq.int_inst_queue_reads          437869141                       # Number of integer instruction queue reads
system.cpu.iq.int_inst_queue_writes         176063850                       # Number of integer instruction queue writes
system.cpu.iq.int_inst_queue_wakeup_accesses    161198779                       # Number of integer instruction queue wakeup accesses
system.cpu.iq.fp_inst_queue_reads             1405414                       # Number of floating instruction queue reads
system.cpu.iq.fp_inst_queue_writes             702770                       # Number of floating instruction queue writes
system.cpu.iq.fp_inst_queue_wakeup_accesses       702315                       # Number of floating instruction queue wakeup accesses
system.cpu.iq.vec_inst_queue_reads                  0                       # Number of vector instruction queue reads
system.cpu.iq.vec_inst_queue_writes                 0                       # Number of vector instruction queue writes
system.cpu.iq.vec_inst_queue_wakeup_accesses            0                       # Number of vector instruction queue wakeup accesses
system.cpu.iq.int_alu_accesses              167361932                       # Number of integer alu accesses
system.cpu.iq.fp_alu_accesses                  703019                       # Number of floating point alu accesses
system.cpu.iq.vec_alu_accesses                      0                       # Number of vector alu accesses
system.cpu.iew.lsq.thread0.forwLoads          1308764                       # Number of loads that had data forwarded from stores
system.cpu.iew.lsq.thread0.invAddrLoads             0                       # Number of loads ignored due to an invalid address
system.cpu.iew.lsq.thread0.squashedLoads      1048400                       # Number of loads squashed
system.cpu.iew.lsq.thread0.ignoredResponses         2553                       # Number of memory responses ignored because the instruction is squashed
system.cpu.iew.lsq.thread0.memOrderViolation          398                       # Number of memory ordering violations
system.cpu.iew.lsq.thread0.squashedStores       811412                       # Number of stores squashed
system.cpu.iew.lsq.thread0.invAddrSwpfs             0                       # Number of software prefetches ignored due to an invalid address
system.cpu.iew.lsq.thread0.blockedLoads             0                       # Number of blocked loads due to partial load-store forwarding
system.cpu.iew.lsq.thread0.rescheduledLoads            1                       # Number of loads that were rescheduled
system.cpu.iew.lsq.thread0.cacheBlocked            51                       # Number of times an access to memory failed due to the cache being blocked
system.cpu.iew.iewIdleCycles                        0                       # Number of cycles IEW is idle
system.cpu.iew.iewSquashCycles                 461987                       # Number of cycles IEW is squashing
system.cpu.iew.iewBlockCycles                 4291881                       # Number of cycles IEW is blocking
system.cpu.iew.iewUnblockCycles                 84482                       # Number of cycles IEW is unblocking
system.cpu.iew.iewDispatchedInsts           167431098                       # Number of instructions dispatched to IQ
system.cpu.iew.iewDispSquashedInsts            449960                       # Number of squashed instructions skipped by dispatch
system.cpu.iew.iewDispLoadInsts              19535014                       # Number of dispatched load instructions
system.cpu.iew.iewDispStoreInsts             12408453                       # Number of dispatched store instructions
system.cpu.iew.iewDispNonSpecInsts                182                       # Number of dispatched non-speculative instructions
system.cpu.iew.iewIQFullEvents                  20386                       # Number of times the IQ has become full, causing a stall
system.cpu.iew.iewLSQFullEvents                  2756                       # Number of times the LSQ has become full, causing a stall
system.cpu.iew.memOrderViolationEvents            398                       # Number of memory order violations
system.cpu.iew.predictedTakenIncorrect          56679                       # Number of branches that were predicted taken incorrectly
system.cpu.iew.predictedNotTakenIncorrect       459274                       # Number of branches that were predicted not taken incorrectly
system.cpu.iew.branchMispredicts               515953                       # Number of branch mispredicts detected at execute
system.cpu.iew.iewExecutedInsts             162409967                       # Number of executed instructions
system.cpu.iew.iewExecLoadInsts              18986672                       # Number of load instructions executed
system.cpu.iew.iewExecSquashedInsts           1677540                       # Number of squashed instructions skipped in execute
system.cpu.iew.exec_swp                             0                       # number of swp insts executed
system.cpu.iew.exec_nop                             0                       # number of nop insts executed
system.cpu.iew.exec_refs                     30997480                       # number of memory reference insts executed
system.cpu.iew.exec_branches                 19853070                       # Number of branches executed
system.cpu.iew.exec_stores                   12010808                       # Number of stores executed
system.cpu.iew.exec_rate                     1.532835                       # Inst execution rate
system.cpu.iew.wb_sent                      162193753                       # cumulative count of insts sent to commit
system.cpu.iew.wb_count                     161901094                       # cumulative count of insts written-back
system.cpu.iew.wb_producers                 117096719                       # num instructions producing a value
system.cpu.iew.wb_consumers                 180380155                       # num instructions consuming a value
system.cpu.iew.wb_rate                       1.528032                       # insts written-back per cycle
system.cpu.iew.wb_fanout                     0.649166                       # average fanout of values written-back
system.cpu.commit.commitSquashedInsts         8472918                       # The number of squashed insts skipped by commit
system.cpu.commit.commitNonSpecStalls              86                       # The number of times commit has been forced to stall to communicate backwards
system.cpu.commit.branchMispredicts            461602                       # The number of times a branch was mispredicted
system.cpu.commit.committed_per_cycle::samples    105198030                       # Number of insts commited each cycle
system.cpu.commit.committed_per_cycle::mean     1.502842                       # Number of insts commited each cycle
system.cpu.commit.committed_per_cycle::stdev     0.806323                       # Number of insts commited each cycle
system.cpu.commit.committed_per_cycle::underflows            0      0.00%      0.00% # Number of insts commited each cycle
system.cpu.commit.committed_per_cycle::0     21048245     20.01%     20.01% # Number of insts commited each cycle
system.cpu.commit.committed_per_cycle::1     10203597      9.70%     29.71% # Number of insts commited each cycle
system.cpu.commit.committed_per_cycle::2     73946188     70.29%    100.00% # Number of insts commited each cycle
system.cpu.commit.committed_per_cycle::overflows            0      0.00%    100.00% # Number of insts commited each cycle
system.cpu.commit.committed_per_cycle::min_value            0                       # Number of insts commited each cycle
system.cpu.commit.committed_per_cycle::max_value            2                       # Number of insts commited each cycle
system.cpu.commit.committed_per_cycle::total    105198030                       # Number of insts commited each cycle
system.cpu.commit.committedInsts             85121742                       # Number of instructions committed
system.cpu.commit.committedOps              158095973                       # Number of ops (including micro ops) committed
system.cpu.commit.swp_count                         0                       # Number of s/w prefetches committed
system.cpu.commit.refs                       30083655                       # Number of memory references committed
system.cpu.commit.loads                      18486614                       # Number of loads committed
system.cpu.commit.membars                           0                       # Number of memory barriers committed
system.cpu.commit.branches                   19756630                       # Number of branches committed
system.cpu.commit.vec_insts                         0                       # Number of committed Vector instructions.
system.cpu.commit.fp_insts                     702138                       # Number of committed floating point instructions.
system.cpu.commit.int_insts                 157789319                       # Number of committed integer instructions.
system.cpu.commit.function_calls               665498                       # Number of function calls committed.
system.cpu.commit.op_class_0::No_OpClass       100115      0.06%      0.06% # Class of committed instruction
system.cpu.commit.op_class_0::IntAlu        127433462     80.61%     80.67% # Class of committed instruction
system.cpu.commit.op_class_0::IntMult          377627      0.24%     80.91% # Class of committed instruction
system.cpu.commit.op_class_0::IntDiv               28      0.00%     80.91% # Class of committed instruction
system.cpu.commit.op_class_0::FloatAdd         100015      0.06%     80.97% # Class of committed instruction
system.cpu.commit.op_class_0::FloatCmp              0      0.00%     80.97% # Class of committed instruction
system.cpu.commit.op_class_0::FloatCvt              0      0.00%     80.97% # Class of committed instruction
system.cpu.commit.op_class_0::FloatMult             0      0.00%     80.97% # Class of committed instruction
system.cpu.commit.op_class_0::FloatMultAcc            0      0.00%     80.97% # Class of committed instruction
system.cpu.commit.op_class_0::FloatDiv              0      0.00%     80.97% # Class of committed instruction
system.cpu.commit.op_class_0::FloatMisc             0      0.00%     80.97% # Class of committed instruction
system.cpu.commit.op_class_0::FloatSqrt             0      0.00%     80.97% # Class of committed instruction
system.cpu.commit.op_class_0::SimdAdd             374      0.00%     80.97% # Class of committed instruction
system.cpu.commit.op_class_0::SimdAddAcc            0      0.00%     80.97% # Class of committed instruction
system.cpu.commit.op_class_0::SimdAlu             102      0.00%     80.97% # Class of committed instruction
system.cpu.commit.op_class_0::SimdCmp               6      0.00%     80.97% # Class of committed instruction
system.cpu.commit.op_class_0::SimdCvt             144      0.00%     80.97% # Class of committed instruction
system.cpu.commit.op_class_0::SimdMisc            259      0.00%     80.97% # Class of committed instruction
system.cpu.commit.op_class_0::SimdMult              0      0.00%     80.97% # Class of committed instruction
system.cpu.commit.op_class_0::SimdMultAcc            0      0.00%     80.97% # Class of committed instruction
system.cpu.commit.op_class_0::SimdShift           186      0.00%     80.97% # Class of committed instruction
system.cpu.commit.op_class_0::SimdShiftAcc            0      0.00%     80.97% # Class of committed instruction
system.cpu.commit.op_class_0::SimdSqrt              0      0.00%     80.97% # Class of committed instruction
system.cpu.commit.op_class_0::SimdFloatAdd            0      0.00%     80.97% # Class of committed instruction
system.cpu.commit.op_class_0::SimdFloatAlu            0      0.00%     80.97% # Class of committed instruction
system.cpu.commit.op_class_0::SimdFloatCmp            0      0.00%     80.97% # Class of committed instruction
system.cpu.commit.op_class_0::SimdFloatCvt            0      0.00%     80.97% # Class of committed instruction
system.cpu.commit.op_class_0::SimdFloatDiv            0      0.00%     80.97% # Class of committed instruction
system.cpu.commit.op_class_0::SimdFloatMisc            0      0.00%     80.97% # Class of committed instruction
system.cpu.commit.op_class_0::SimdFloatMult            0      0.00%     80.97% # Class of committed instruction
system.cpu.commit.op_class_0::SimdFloatMultAcc            0      0.00%     80.97% # Class of committed instruction
system.cpu.commit.op_class_0::SimdFloatSqrt            0      0.00%     80.97% # Class of committed instruction
system.cpu.commit.op_class_0::SimdAes               0      0.00%     80.97% # Class of committed instruction
system.cpu.commit.op_class_0::SimdAesMix            0      0.00%     80.97% # Class of committed instruction
system.cpu.commit.op_class_0::SimdSha1Hash            0      0.00%     80.97% # Class of committed instruction
system.cpu.commit.op_class_0::SimdSha1Hash2            0      0.00%     80.97% # Class of committed instruction
system.cpu.commit.op_class_0::SimdSha256Hash            0      0.00%     80.97% # Class of committed instruction
system.cpu.commit.op_class_0::SimdSha256Hash2            0      0.00%     80.97% # Class of committed instruction
system.cpu.commit.op_class_0::SimdShaSigma2            0      0.00%     80.97% # Class of committed instruction
system.cpu.commit.op_class_0::SimdShaSigma3            0      0.00%     80.97% # Class of committed instruction
system.cpu.commit.op_class_0::MemRead        18186510     11.50%     92.47% # Class of committed instruction
system.cpu.commit.op_class_0::MemWrite       11296614      7.15%     99.62% # Class of committed instruction
system.cpu.commit.op_class_0::FloatMemRead       300104      0.19%     99.81% # Class of committed instruction
system.cpu.commit.op_class_0::FloatMemWrite       300427      0.19%    100.00% # Class of committed instruction
system.cpu.commit.op_class_0::IprAccess             0      0.00%    100.00% # Class of committed instruction
system.cpu.commit.op_class_0::InstPrefetch            0      0.00%    100.00% # Class of committed instruction
system.cpu.commit.op_class_0::total         158095973                       # Class of committed instruction
system.cpu.commit.bw_lim_events              73946188                       # number cycles where commit BW limit reached
system.cpu.rob.rob_reads                    197820733                       # The number of ROB reads
system.cpu.rob.rob_writes                   333850107                       # The number of ROB writes
system.cpu.timesIdled                             470                       # Number of times that the entire CPU went into an idle state and unscheduled itself
system.cpu.idleCycles                           43612                       # Total number of cycles that the CPU has spent unscheduled due to idling
system.cpu.committedInsts                    85121742                       # Number of Instructions Simulated
system.cpu.committedOps                     158095973                       # Number of Ops (including micro ops) Simulated
system.cpu.cpi                               1.244734                       # CPI: Cycles Per Instruction
system.cpu.cpi_total                         1.244734                       # CPI: Total CPI of All Threads
system.cpu.ipc                               0.803384                       # IPC: Instructions Per Cycle
system.cpu.ipc_total                         0.803384                       # IPC: Total IPC of All Threads
system.cpu.int_regfile_reads                238407019                       # number of integer regfile reads
system.cpu.int_regfile_writes               129931653                       # number of integer regfile writes
system.cpu.fp_regfile_reads                    304216                       # number of floating regfile reads
system.cpu.fp_regfile_writes                   401705                       # number of floating regfile writes
system.cpu.cc_regfile_reads                 101421887                       # number of cc regfile reads
system.cpu.cc_regfile_writes                 51558102                       # number of cc regfile writes
system.cpu.misc_regfile_reads                72094378                       # number of misc regfile reads
system.cpu.dcache.tags.pwrStateResidencyTicks::UNDEFINED  52976980000                       # Cumulative time (in ticks) in various power states
system.cpu.dcache.tags.tagsinuse          1022.527888                       # Cycle average of tags in use
system.cpu.dcache.tags.total_refs            29262969                       # Total number of references to valid blocks.
system.cpu.dcache.tags.sampled_refs            178628                       # Sample count of references to valid blocks.
system.cpu.dcache.tags.avg_refs            163.820728                       # Average number of references to valid blocks.
system.cpu.dcache.tags.warmup_cycle            170000                       # Cycle when the warmup percentage was hit.
system.cpu.dcache.tags.occ_blocks::.cpu.data  1022.527888                       # Average occupied blocks per requestor
system.cpu.dcache.tags.occ_percent::.cpu.data     0.998562                       # Average percentage of cache occupancy
system.cpu.dcache.tags.occ_percent::total     0.998562                       # Average percentage of cache occupancy
system.cpu.dcache.tags.occ_task_id_blocks::1024         1024                       # Occupied blocks per task id
system.cpu.dcache.tags.age_task_id_blocks_1024::0          121                       # Occupied blocks per task id
system.cpu.dcache.tags.age_task_id_blocks_1024::1          871                       # Occupied blocks per task id
system.cpu.dcache.tags.age_task_id_blocks_1024::2           19                       # Occupied blocks per task id
system.cpu.dcache.tags.age_task_id_blocks_1024::3           10                       # Occupied blocks per task id
system.cpu.dcache.tags.age_task_id_blocks_1024::4            3                       # Occupied blocks per task id
system.cpu.dcache.tags.occ_task_id_percent::1024            1                       # Percentage of cache occupancy per task id
system.cpu.dcache.tags.tag_accesses         234288548                       # Number of tag accesses
system.cpu.dcache.tags.data_accesses        234288548                       # Number of data accesses
system.cpu.dcache.pwrStateResidencyTicks::UNDEFINED  52976980000                       # Cumulative time (in ticks) in various power states
system.cpu.dcache.ReadReq_hits::.cpu.data     17513797                       # number of ReadReq hits
system.cpu.dcache.ReadReq_hits::total        17513797                       # number of ReadReq hits
system.cpu.dcache.WriteReq_hits::.cpu.data     11524994                       # number of WriteReq hits
system.cpu.dcache.WriteReq_hits::total       11524994                       # number of WriteReq hits
system.cpu.dcache.demand_hits::.cpu.data     29038791                       # number of demand (read+write) hits
system.cpu.dcache.demand_hits::total         29038791                       # number of demand (read+write) hits
system.cpu.dcache.overall_hits::.cpu.data     29038791                       # number of overall hits
system.cpu.dcache.overall_hits::total        29038791                       # number of overall hits
system.cpu.dcache.ReadReq_misses::.cpu.data       152902                       # number of ReadReq misses
system.cpu.dcache.ReadReq_misses::total        152902                       # number of ReadReq misses
system.cpu.dcache.WriteReq_misses::.cpu.data        72047                       # number of WriteReq misses
system.cpu.dcache.WriteReq_misses::total        72047                       # number of WriteReq misses
system.cpu.dcache.demand_misses::.cpu.data       224949                       # number of demand (read+write) misses
system.cpu.dcache.demand_misses::total         224949                       # number of demand (read+write) misses
system.cpu.dcache.overall_misses::.cpu.data       224949                       # number of overall misses
system.cpu.dcache.overall_misses::total        224949                       # number of overall misses
system.cpu.dcache.ReadReq_miss_latency::.cpu.data   4646474500                       # number of ReadReq miss cycles
system.cpu.dcache.ReadReq_miss_latency::total   4646474500                       # number of ReadReq miss cycles
system.cpu.dcache.WriteReq_miss_latency::.cpu.data   2478625500                       # number of WriteReq miss cycles
system.cpu.dcache.WriteReq_miss_latency::total   2478625500                       # number of WriteReq miss cycles
system.cpu.dcache.demand_miss_latency::.cpu.data   7125100000                       # number of demand (read+write) miss cycles
system.cpu.dcache.demand_miss_latency::total   7125100000                       # number of demand (read+write) miss cycles
system.cpu.dcache.overall_miss_latency::.cpu.data   7125100000                       # number of overall miss cycles
system.cpu.dcache.overall_miss_latency::total   7125100000                       # number of overall miss cycles
system.cpu.dcache.ReadReq_accesses::.cpu.data     17666699                       # number of ReadReq accesses(hits+misses)
system.cpu.dcache.ReadReq_accesses::total     17666699                       # number of ReadReq accesses(hits+misses)
system.cpu.dcache.WriteReq_accesses::.cpu.data     11597041                       # number of WriteReq accesses(hits+misses)
system.cpu.dcache.WriteReq_accesses::total     11597041                       # number of WriteReq accesses(hits+misses)
system.cpu.dcache.demand_accesses::.cpu.data     29263740                       # number of demand (read+write) accesses
system.cpu.dcache.demand_accesses::total     29263740                       # number of demand (read+write) accesses
system.cpu.dcache.overall_accesses::.cpu.data     29263740                       # number of overall (read+write) accesses
system.cpu.dcache.overall_accesses::total     29263740                       # number of overall (read+write) accesses
system.cpu.dcache.ReadReq_miss_rate::.cpu.data     0.008655                       # miss rate for ReadReq accesses
system.cpu.dcache.ReadReq_miss_rate::total     0.008655                       # miss rate for ReadReq accesses
system.cpu.dcache.WriteReq_miss_rate::.cpu.data     0.006213                       # miss rate for WriteReq accesses
system.cpu.dcache.WriteReq_miss_rate::total     0.006213                       # miss rate for WriteReq accesses
system.cpu.dcache.demand_miss_rate::.cpu.data     0.007687                       # miss rate for demand accesses
system.cpu.dcache.demand_miss_rate::total     0.007687                       # miss rate for demand accesses
system.cpu.dcache.overall_miss_rate::.cpu.data     0.007687                       # miss rate for overall accesses
system.cpu.dcache.overall_miss_rate::total     0.007687                       # miss rate for overall accesses
system.cpu.dcache.ReadReq_avg_miss_latency::.cpu.data 30388.578959                       # average ReadReq miss latency
system.cpu.dcache.ReadReq_avg_miss_latency::total 30388.578959                       # average ReadReq miss latency
system.cpu.dcache.WriteReq_avg_miss_latency::.cpu.data 34402.896720                       # average WriteReq miss latency
system.cpu.dcache.WriteReq_avg_miss_latency::total 34402.896720                       # average WriteReq miss latency
[...]
system.l3cache.tags.occ_blocks::.cpu.data 15579.031919                       # Average occupied blocks per requestor
system.l3cache.tags.occ_percent::.cpu.inst     0.020378                       # Average percentage of cache occupancy
system.l3cache.tags.occ_percent::.cpu.data     0.475434                       # Average percentage of cache occupancy
system.l3cache.tags.occ_percent::total       0.495812                       # Average percentage of cache occupancy
system.l3cache.tags.occ_task_id_blocks::1024        27460                       # Occupied blocks per task id
system.l3cache.tags.age_task_id_blocks_1024::0           61                       # Occupied blocks per task id
system.l3cache.tags.age_task_id_blocks_1024::3         1930                       # Occupied blocks per task id
system.l3cache.tags.age_task_id_blocks_1024::4        25469                       # Occupied blocks per task id
system.l3cache.tags.occ_task_id_percent::1024     0.838013                       # Percentage of cache occupancy per task id
system.l3cache.tags.tag_accesses              4571764                       # Number of tag accesses
system.l3cache.tags.data_accesses             4571764                       # Number of data accesses
system.l3cache.pwrStateResidencyTicks::UNDEFINED  52976980000                       # Cumulative time (in ticks) in various power states
system.l3cache.WritebackDirty_hits::.writebacks       139530                       # number of WritebackDirty hits
system.l3cache.WritebackDirty_hits::total       139530                       # number of WritebackDirty hits
system.l3cache.ReadExReq_hits::.cpu.data            5                       # number of ReadExReq hits
system.l3cache.ReadExReq_hits::total                5                       # number of ReadExReq hits
system.l3cache.ReadSharedReq_hits::.cpu.inst           11                       # number of ReadSharedReq hits
system.l3cache.ReadSharedReq_hits::.cpu.data       117013                       # number of ReadSharedReq hits
system.l3cache.ReadSharedReq_hits::total       117024                       # number of ReadSharedReq hits
system.l3cache.demand_hits::.cpu.inst              11                       # number of demand (read+write) hits
system.l3cache.demand_hits::.cpu.data          117018                       # number of demand (read+write) hits
system.l3cache.demand_hits::total              117029                       # number of demand (read+write) hits
system.l3cache.overall_hits::.cpu.inst             11                       # number of overall hits
system.l3cache.overall_hits::.cpu.data         117018                       # number of overall hits
system.l3cache.overall_hits::total             117029                       # number of overall hits
system.l3cache.ReadExReq_misses::.cpu.data        26392                       # number of ReadExReq misses
system.l3cache.ReadExReq_misses::total          26392                       # number of ReadExReq misses
system.l3cache.ReadSharedReq_misses::.cpu.inst          789                       # number of ReadSharedReq misses
system.l3cache.ReadSharedReq_misses::.cpu.data          279                       # number of ReadSharedReq misses
system.l3cache.ReadSharedReq_misses::total         1068                       # number of ReadSharedReq misses
system.l3cache.demand_misses::.cpu.inst           789                       # number of demand (read+write) misses
system.l3cache.demand_misses::.cpu.data         26671                       # number of demand (read+write) misses
system.l3cache.demand_misses::total             27460                       # number of demand (read+write) misses
system.l3cache.overall_misses::.cpu.inst          789                       # number of overall misses
system.l3cache.overall_misses::.cpu.data        26671                       # number of overall misses
system.l3cache.overall_misses::total            27460                       # number of overall misses
system.l3cache.ReadExReq_miss_latency::.cpu.data   1867691500                       # number of ReadExReq miss cycles
system.l3cache.ReadExReq_miss_latency::total   1867691500                       # number of ReadExReq miss cycles
system.l3cache.ReadSharedReq_miss_latency::.cpu.inst     64315000                       # number of ReadSharedReq miss cycles
system.l3cache.ReadSharedReq_miss_latency::.cpu.data     25263500                       # number of ReadSharedReq miss cycles
system.l3cache.ReadSharedReq_miss_latency::total     89578500                       # number of ReadSharedReq miss cycles
system.l3cache.demand_miss_latency::.cpu.inst     64315000                       # number of demand (read+write) miss cycles
system.l3cache.demand_miss_latency::.cpu.data   1892955000                       # number of demand (read+write) miss cycles
system.l3cache.demand_miss_latency::total   1957270000                       # number of demand (read+write) miss cycles
system.l3cache.overall_miss_latency::.cpu.inst     64315000                       # number of overall miss cycles
system.l3cache.overall_miss_latency::.cpu.data   1892955000                       # number of overall miss cycles
system.l3cache.overall_miss_latency::total   1957270000                       # number of overall miss cycles
system.l3cache.WritebackDirty_accesses::.writebacks       139530                       # number of WritebackDirty accesses(hits+misses)
system.l3cache.WritebackDirty_accesses::total       139530                       # number of WritebackDirty accesses(hits+misses)
system.l3cache.ReadExReq_accesses::.cpu.data        26397                       # number of ReadExReq accesses(hits+misses)
system.l3cache.ReadExReq_accesses::total        26397                       # number of ReadExReq accesses(hits+misses)
system.l3cache.ReadSharedReq_accesses::.cpu.inst          800                       # number of ReadSharedReq accesses(hits+misses)
system.l3cache.ReadSharedReq_accesses::.cpu.data       117292                       # number of ReadSharedReq accesses(hits+misses)
system.l3cache.ReadSharedReq_accesses::total       118092                       # number of ReadSharedReq accesses(hits+misses)
system.l3cache.demand_accesses::.cpu.inst          800                       # number of demand (read+write) accesses
system.l3cache.demand_accesses::.cpu.data       143689                       # number of demand (read+write) accesses
system.l3cache.demand_accesses::total          144489                       # number of demand (read+write) accesses
system.l3cache.overall_accesses::.cpu.inst          800                       # number of overall (read+write) accesses
system.l3cache.overall_accesses::.cpu.data       143689                       # number of overall (read+write) accesses
system.l3cache.overall_accesses::total         144489                       # number of overall (read+write) accesses
system.l3cache.ReadExReq_miss_rate::.cpu.data     0.999811                       # miss rate for ReadExReq accesses
system.l3cache.ReadExReq_miss_rate::total     0.999811                       # miss rate for ReadExReq accesses
system.l3cache.ReadSharedReq_miss_rate::.cpu.inst     0.986250                       # miss rate for ReadSharedReq accesses
system.l3cache.ReadSharedReq_miss_rate::.cpu.data     0.002379                       # miss rate for ReadSharedReq accesses
system.l3cache.ReadSharedReq_miss_rate::total     0.009044                       # miss rate for ReadSharedReq accesses
system.l3cache.demand_miss_rate::.cpu.inst     0.986250                       # miss rate for demand accesses
system.l3cache.demand_miss_rate::.cpu.data     0.185616                       # miss rate for demand accesses
system.l3cache.demand_miss_rate::total       0.190049                       # miss rate for demand accesses
system.l3cache.overall_miss_rate::.cpu.inst     0.986250                       # miss rate for overall accesses
system.l3cache.overall_miss_rate::.cpu.data     0.185616                       # miss rate for overall accesses
system.l3cache.overall_miss_rate::total      0.190049                       # miss rate for overall accesses
system.l3cache.ReadExReq_avg_miss_latency::.cpu.data 70767.334798                       # average ReadExReq miss latency
system.l3cache.ReadExReq_avg_miss_latency::total 70767.334798                       # average ReadExReq miss latency
system.l3cache.ReadSharedReq_avg_miss_latency::.cpu.inst 81514.575412                       # average ReadSharedReq miss latency
system.l3cache.ReadSharedReq_avg_miss_latency::.cpu.data 90550.179211                       # average ReadSharedReq miss latency
system.l3cache.ReadSharedReq_avg_miss_latency::total        83875                       # average ReadSharedReq miss latency
system.l3cache.demand_avg_miss_latency::.cpu.inst 81514.575412                       # average overall miss latency
system.l3cache.demand_avg_miss_latency::.cpu.data 70974.279180                       # average overall miss latency
system.l3cache.demand_avg_miss_latency::total 71277.130371                       # average overall miss latency
system.l3cache.overall_avg_miss_latency::.cpu.inst 81514.575412                       # average overall miss latency
system.l3cache.overall_avg_miss_latency::.cpu.data 70974.279180                       # average overall miss latency
system.l3cache.overall_avg_miss_latency::total 71277.130371                       # average overall miss latency
system.l3cache.blocked_cycles::no_mshrs             0                       # number of cycles access was blocked
system.l3cache.blocked_cycles::no_targets            0                       # number of cycles access was blocked
system.l3cache.blocked::no_mshrs                    0                       # number of cycles access was blocked
system.l3cache.blocked::no_targets                  0                       # number of cycles access was blocked
system.l3cache.avg_blocked_cycles::no_mshrs          nan                       # average number of cycles each access was blocked
system.l3cache.avg_blocked_cycles::no_targets          nan                       # average number of cycles each access was blocked
system.l3cache.ReadExReq_mshr_misses::.cpu.data        26392                       # number of ReadExReq MSHR misses
system.l3cache.ReadExReq_mshr_misses::total        26392                       # number of ReadExReq MSHR misses
system.l3cache.ReadSharedReq_mshr_misses::.cpu.inst          789                       # number of ReadSharedReq MSHR misses
system.l3cache.ReadSharedReq_mshr_misses::.cpu.data          279                       # number of ReadSharedReq MSHR misses
system.l3cache.ReadSharedReq_mshr_misses::total         1068                       # number of ReadSharedReq MSHR misses
system.l3cache.demand_mshr_misses::.cpu.inst          789                       # number of demand (read+write) MSHR misses
system.l3cache.demand_mshr_misses::.cpu.data        26671                       # number of demand (read+write) MSHR misses
system.l3cache.demand_mshr_misses::total        27460                       # number of demand (read+write) MSHR misses
system.l3cache.overall_mshr_misses::.cpu.inst          789                       # number of overall MSHR misses
system.l3cache.overall_mshr_misses::.cpu.data        26671                       # number of overall MSHR misses
system.l3cache.overall_mshr_misses::total        27460                       # number of overall MSHR misses
system.l3cache.ReadExReq_mshr_miss_latency::.cpu.data   1814907500                       # number of ReadExReq MSHR miss cycles
system.l3cache.ReadExReq_mshr_miss_latency::total   1814907500                       # number of ReadExReq MSHR miss cycles
system.l3cache.ReadSharedReq_mshr_miss_latency::.cpu.inst     62737000                       # number of ReadSharedReq MSHR miss cycles
system.l3cache.ReadSharedReq_mshr_miss_latency::.cpu.data     24705500                       # number of ReadSharedReq MSHR miss cycles
system.l3cache.ReadSharedReq_mshr_miss_latency::total     87442500                       # number of ReadSharedReq MSHR miss cycles
system.l3cache.demand_mshr_miss_latency::.cpu.inst     62737000                       # number of demand (read+write) MSHR miss cycles
system.l3cache.demand_mshr_miss_latency::.cpu.data   1839613000                       # number of demand (read+write) MSHR miss cycles
system.l3cache.demand_mshr_miss_latency::total   1902350000                       # number of demand (read+write) MSHR miss cycles
system.l3cache.overall_mshr_miss_latency::.cpu.inst     62737000                       # number of overall MSHR miss cycles
system.l3cache.overall_mshr_miss_latency::.cpu.data   1839613000                       # number of overall MSHR miss cycles
system.l3cache.overall_mshr_miss_latency::total   1902350000                       # number of overall MSHR miss cycles
system.l3cache.ReadExReq_mshr_miss_rate::.cpu.data     0.999811                       # mshr miss rate for ReadExReq accesses
system.l3cache.ReadExReq_mshr_miss_rate::total     0.999811                       # mshr miss rate for ReadExReq accesses
system.l3cache.ReadSharedReq_mshr_miss_rate::.cpu.inst     0.986250                       # mshr miss rate for ReadSharedReq accesses
system.l3cache.ReadSharedReq_mshr_miss_rate::.cpu.data     0.002379                       # mshr miss rate for ReadSharedReq accesses
system.l3cache.ReadSharedReq_mshr_miss_rate::total     0.009044                       # mshr miss rate for ReadSharedReq accesses
system.l3cache.demand_mshr_miss_rate::.cpu.inst     0.986250                       # mshr miss rate for demand accesses
system.l3cache.demand_mshr_miss_rate::.cpu.data     0.185616                       # mshr miss rate for demand accesses
system.l3cache.demand_mshr_miss_rate::total     0.190049                       # mshr miss rate for demand accesses
system.l3cache.overall_mshr_miss_rate::.cpu.inst     0.986250                       # mshr miss rate for overall accesses
system.l3cache.overall_mshr_miss_rate::.cpu.data     0.185616                       # mshr miss rate for overall accesses
system.l3cache.overall_mshr_miss_rate::total     0.190049                       # mshr miss rate for overall accesses
system.l3cache.ReadExReq_avg_mshr_miss_latency::.cpu.data 68767.334798                       # average ReadExReq mshr miss latency
system.l3cache.ReadExReq_avg_mshr_miss_latency::total 68767.334798                       # average ReadExReq mshr miss latency
system.l3cache.ReadSharedReq_avg_mshr_miss_latency::.cpu.inst 79514.575412                       # average ReadSharedReq mshr miss latency
system.l3cache.ReadSharedReq_avg_mshr_miss_latency::.cpu.data 88550.179211                       # average ReadSharedReq mshr miss latency
system.l3cache.ReadSharedReq_avg_mshr_miss_latency::total        81875                       # average ReadSharedReq mshr miss latency
system.l3cache.demand_avg_mshr_miss_latency::.cpu.inst 79514.575412                       # average overall mshr miss latency
system.l3cache.demand_avg_mshr_miss_latency::.cpu.data 68974.279180                       # average overall mshr miss latency
system.l3cache.demand_avg_mshr_miss_latency::total 69277.130371                       # average overall mshr miss latency
system.l3cache.overall_avg_mshr_miss_latency::.cpu.inst 79514.575412                       # average overall mshr miss latency
system.l3cache.overall_avg_mshr_miss_latency::.cpu.data 68974.279180                       # average overall mshr miss latency
system.l3cache.overall_avg_mshr_miss_latency::total 69277.130371                       # average overall mshr miss latency
system.l3cache.replacements                         0                       # number of replacements
system.membus.snoop_filter.tot_requests         27460                       # Total number of requests made to the snoop filter.
system.membus.snoop_filter.hit_single_requests            0                       # Number of requests hitting in the snoop filter with a single holder of the requested data.
system.membus.snoop_filter.hit_multi_requests            0                       # Number of requests hitting in the snoop filter with multiple (>1) holders of the requested data.
system.membus.snoop_filter.tot_snoops               0                       # Total number of snoops made to the snoop filter.
system.membus.snoop_filter.hit_single_snoops            0                       # Number of snoops hitting in the snoop filter with a single holder of the requested data.
system.membus.snoop_filter.hit_multi_snoops            0                       # Number of snoops hitting in the snoop filter with multiple (>1) holders of the requested data.
system.membus.pwrStateResidencyTicks::UNDEFINED  52976980000                       # Cumulative time (in ticks) in various power states
system.membus.trans_dist::ReadResp               1068                       # Transaction distribution
system.membus.trans_dist::ReadExReq             26392                       # Transaction distribution
system.membus.trans_dist::ReadExResp            26392                       # Transaction distribution
system.membus.trans_dist::ReadSharedReq          1068                       # Transaction distribution
system.membus.pkt_count_system.l3cache.mem_side::system.mem_ctrl.port        54920                       # Packet count per connected master and slave (bytes)
system.membus.pkt_count_system.l3cache.mem_side::total        54920                       # Packet count per connected master and slave (bytes)
system.membus.pkt_count::total                  54920                       # Packet count per connected master and slave (bytes)
system.membus.pkt_size_system.l3cache.mem_side::system.mem_ctrl.port      1757440                       # Cumulative packet size per connected master and slave (bytes)
system.membus.pkt_size_system.l3cache.mem_side::total      1757440                       # Cumulative packet size per connected master and slave (bytes)
system.membus.pkt_size::total                 1757440                       # Cumulative packet size per connected master and slave (bytes)
system.membus.snoops                                0                       # Total snoops (count)
system.membus.snoopTraffic                          0                       # Total snoop traffic (bytes)
system.membus.snoop_fanout::samples             27460                       # Request fanout histogram
system.membus.snoop_fanout::mean                    0                       # Request fanout histogram
system.membus.snoop_fanout::stdev                   0                       # Request fanout histogram
system.membus.snoop_fanout::underflows              0      0.00%      0.00% # Request fanout histogram
system.membus.snoop_fanout::0                   27460    100.00%    100.00% # Request fanout histogram
system.membus.snoop_fanout::1                       0      0.00%    100.00% # Request fanout histogram
system.membus.snoop_fanout::overflows               0      0.00%    100.00% # Request fanout histogram
system.membus.snoop_fanout::min_value               0                       # Request fanout histogram
system.membus.snoop_fanout::max_value               0                       # Request fanout histogram
system.membus.snoop_fanout::total               27460                       # Request fanout histogram
system.membus.reqLayer0.occupancy            13730000                       # Layer occupancy (ticks)
system.membus.reqLayer0.utilization               0.0                       # Layer utilization (%)
system.membus.respLayer0.occupancy           74018000                       # Layer occupancy (ticks)
system.membus.respLayer0.utilization              0.1                       # Layer utilization (%)

---------- End Simulation Statistics   ----------