
---------- Begin Simulation Statistics ----------
sim_seconds                                  0.000045                       # Number of seconds simulated
sim_ticks                                    44663000                       # Number of ticks simulated
final_tick                                   44663000                       # Number of ticks from beginning of simulation (restored from checkpoints and never reset)
sim_freq                                 1000000000000                       # Frequency of simulated ticks
host_inst_rate                                  36400                       # Simulator instruction rate (inst/s)
host_op_rate                                    73460                       # Simulator op (including micro ops) rate (op/s)
host_tick_rate                              210003536                       # Simulator tick rate (ticks/s)
host_mem_usage                                 655932                       # Number of bytes of host memory used
host_seconds                                     0.21                       # Real time elapsed on the host
sim_insts                                        7741                       # Number of instructions simulated
sim_ops                                         15623                       # Number of ops (including micro ops) simulated
system.clk_domain.voltage_domain.voltage            1                       # Voltage in Volts
system.clk_domain.clock                           500                       # Clock period in ticks
system.mem_ctrl.pwrStateResidencyTicks::UNDEFINED     44663000                       # Cumulative time (in ticks) in various power states
system.mem_ctrl.bytes_read::.cpu.inst           35392                       # Number of bytes read from this memory
system.mem_ctrl.bytes_read::.cpu.data           16512                       # Number of bytes read from this memory
system.mem_ctrl.bytes_read::total               51904                       # Number of bytes read from this memory
system.mem_ctrl.bytes_inst_read::.cpu.inst        35392                       # Number of instructions bytes read from this memory
system.mem_ctrl.bytes_inst_read::total          35392                       # Number of instructions bytes read from this memory
system.mem_ctrl.num_reads::.cpu.inst              553                       # Number of read requests responded to by this memory
system.mem_ctrl.num_reads::.cpu.data              258                       # Number of read requests responded to by this memory
system.mem_ctrl.num_reads::total                  811                       # Number of read requests responded to by this memory
system.mem_ctrl.bw_read::.cpu.inst          792423259                       # Total read bandwidth from this memory (bytes/s)
system.mem_ctrl.bw_read::.cpu.data          369701990                       # Total read bandwidth from this memory (bytes/s)
system.mem_ctrl.bw_read::total             1162125249                       # Total read bandwidth from this memory (bytes/s)
system.mem_ctrl.bw_inst_read::.cpu.inst     792423259                       # Instruction read bandwidth from this memory (bytes/s)
system.mem_ctrl.bw_inst_read::total         792423259                       # Instruction read bandwidth from this memory (bytes/s)
system.mem_ctrl.bw_total::.cpu.inst         792423259                       # Total bandwidth to/from this memory (bytes/s)
system.mem_ctrl.bw_total::.cpu.data         369701990                       # Total bandwidth to/from this memory (bytes/s)
system.mem_ctrl.bw_total::total            1162125249                       # Total bandwidth to/from this memory (bytes/s)
system.mem_ctrl.avgPriority_.cpu.inst::samples       553.00                       # Average QoS priority value for accepted requests
system.mem_ctrl.avgPriority_.cpu.data::samples       258.00                       # Average QoS priority value for accepted requests
system.mem_ctrl.priorityMinLatency       0.000000018750                       # per QoS priority minimum request to response latency (s)
system.mem_ctrl.priorityMaxLatency       0.000000591250                       # per QoS priority maximum request to response latency (s)
system.mem_ctrl.numReadWriteTurnArounds             0                       # Number of turnarounds from READ to WRITE
system.mem_ctrl.numWriteReadTurnArounds             0                       # Number of turnarounds from WRITE to READ
system.mem_ctrl.numStayReadState                 1598                       # Number of times bus staying in READ state
system.mem_ctrl.numStayWriteState                   0                       # Number of times bus staying in WRITE state
system.mem_ctrl.readReqs                          811                       # Number of read requests accepted
system.mem_ctrl.writeReqs                           0                       # Number of write requests accepted
system.mem_ctrl.readBursts                        811                       # Number of DRAM read bursts, including those serviced by the write queue
system.mem_ctrl.writeBursts                         0                       # Number of DRAM write bursts, including those merged in the write queue
system.mem_ctrl.bytesReadDRAM                   51904                       # Total number of bytes read from DRAM
system.mem_ctrl.bytesReadWrQ                        0                       # Total number of bytes read from write queue
system.mem_ctrl.bytesWritten                        0                       # Total number of bytes written to DRAM
system.mem_ctrl.bytesReadSys                    51904                       # Total read bytes from the system interface side
system.mem_ctrl.bytesWrittenSys                     0                       # Total written bytes from the system interface side
system.mem_ctrl.servicedByWrQ                       0                       # Number of DRAM read bursts serviced by the write queue
system.mem_ctrl.mergedWrBursts                      0                       # Number of DRAM write bursts merged with an existing one
system.mem_ctrl.neitherReadNorWriteReqs             0                       # Number of requests that are neither read nor write
system.mem_ctrl.perBankRdBursts::0                150                       # Per bank write bursts
system.mem_ctrl.perBankRdBursts::1                 34                       # Per bank write bursts
system.mem_ctrl.perBankRdBursts::2                 37                       # Per bank write bursts
system.mem_ctrl.perBankRdBursts::3                 15                       # Per bank write bursts
system.mem_ctrl.perBankRdBursts::4                 27                       # Per bank write bursts
system.mem_ctrl.perBankRdBursts::5                 13                       # Per bank write bursts
system.mem_ctrl.perBankRdBursts::6                 73                       # Per bank write bursts
system.mem_ctrl.perBankRdBursts::7                 31                       # Per bank write bursts
system.mem_ctrl.perBankRdBursts::8                  2                       # Per bank write bursts
system.mem_ctrl.perBankRdBursts::9                 10                       # Per bank write bursts
system.mem_ctrl.perBankRdBursts::10               117                       # Per bank write bursts
system.mem_ctrl.perBankRdBursts::11                67                       # Per bank write bursts
system.mem_ctrl.perBankRdBursts::12                12                       # Per bank write bursts
system.mem_ctrl.perBankRdBursts::13                27                       # Per bank write bursts
system.mem_ctrl.perBankRdBursts::14                99                       # Per bank write bursts
system.mem_ctrl.perBankRdBursts::15                97                       # Per bank write bursts
system.mem_ctrl.perBankWrBursts::0                  0                       # Per bank write bursts
system.mem_ctrl.perBankWrBursts::1                  0                       # Per bank write bursts
system.mem_ctrl.perBankWrBursts::2                  0                       # Per bank write bursts
system.mem_ctrl.perBankWrBursts::3                  0                       # Per bank write bursts
system.mem_ctrl.perBankWrBursts::4                  0                       # Per bank write bursts
system.mem_ctrl.perBankWrBursts::5                  0                       # Per bank write bursts
system.mem_ctrl.perBankWrBursts::6                  0                       # Per bank write bursts
system.mem_ctrl.perBankWrBursts::7                  0                       # Per bank write bursts
system.mem_ctrl.perBankWrBursts::8                  0                       # Per bank write bursts
system.mem_ctrl.perBankWrBursts::9                  0                       # Per bank write bursts
system.mem_ctrl.perBankWrBursts::10                 0                       # Per bank write bursts
system.mem_ctrl.perBankWrBursts::11                 0                       # Per bank write bursts
system.mem_ctrl.perBankWrBursts::12                 0                       # Per bank write bursts
system.mem_ctrl.perBankWrBursts::13                 0                       # Per bank write bursts
system.mem_ctrl.perBankWrBursts::14                 0                       # Per bank write bursts
system.mem_ctrl.perBankWrBursts::15                 0                       # Per bank write bursts
system.mem_ctrl.numRdRetry                          0                       # Number of times read queue was full causing retry
system.mem_ctrl.numWrRetry                          0                       # Number of times write queue was full causing retry
system.mem_ctrl.totGap                       44571500                       # Total gap between requests
system.mem_ctrl.readPktSize::0                      0                       # Read request sizes (log2)
system.mem_ctrl.readPktSize::1                      0                       # Read request sizes (log2)
system.mem_ctrl.readPktSize::2                      0                       # Read request sizes (log2)
system.mem_ctrl.readPktSize::3                      0                       # Read request sizes (log2)
system.mem_ctrl.readPktSize::4                      0                       # Read request sizes (log2)
system.mem_ctrl.readPktSize::5                      0                       # Read request sizes (log2)
system.mem_ctrl.readPktSize::6                    811                       # Read request sizes (log2)
system.mem_ctrl.writePktSize::0                     0                       # Write request sizes (log2)
system.mem_ctrl.writePktSize::1                     0                       # Write request sizes (log2)
system.mem_ctrl.writePktSize::2                     0                       # Write request sizes (log2)
system.mem_ctrl.writePktSize::3                     0                       # Write request sizes (log2)
system.mem_ctrl.writePktSize::4                     0                       # Write request sizes (log2)
system.mem_ctrl.writePktSize::5                     0                       # Write request sizes (log2)
system.mem_ctrl.writePktSize::6                     0                       # Write request sizes (log2)
system.mem_ctrl.rdQLenPdf::0                      483                       # What read queue length does an incoming req see
system.mem_ctrl.rdQLenPdf::1                      233                       # What read queue length does an incoming req see
system.mem_ctrl.rdQLenPdf::2                       78                       # What read queue length does an incoming req see
system.mem_ctrl.rdQLenPdf::3                       14                       # What read queue length does an incoming req see
system.mem_ctrl.rdQLenPdf::4                        3                       # What read queue length does an incoming req see
system.mem_ctrl.rdQLenPdf::5                        0                       # What read queue length does an incoming req see
system.mem_ctrl.rdQLenPdf::6                        0                       # What read queue length does an incoming req see
system.mem_ctrl.rdQLenPdf::7                        0                       # What read queue length does an incoming req see
system.mem_ctrl.rdQLenPdf::8                        0                       # What read queue length does an incoming req see
system.mem_ctrl.rdQLenPdf::9                        0                       # What read queue length does an incoming req see
system.mem_ctrl.rdQLenPdf::10                       0                       # What read queue length does an incoming req see
system.mem_ctrl.rdQLenPdf::11                       0                       # What read queue length does an incoming req see
system.mem_ctrl.rdQLenPdf::12                       0                       # What read queue length does an incoming req see
system.mem_ctrl.rdQLenPdf::13                       0                       # What read queue length does an incoming req see
system.mem_ctrl.rdQLenPdf::14                       0                       # What read queue length does an incoming req see
system.mem_ctrl.rdQLenPdf::15                       0                       # What read queue length does an incoming req see
system.mem_ctrl.rdQLenPdf::16                       0                       # What read queue length does an incoming req see
system.mem_ctrl.rdQLenPdf::17                       0                       # What read queue length does an incoming req see
system.mem_ctrl.rdQLenPdf::18                       0                       # What read queue length does an incoming req see
system.mem_ctrl.rdQLenPdf::19                       0                       # What read queue length does an incoming req see
system.mem_ctrl.rdQLenPdf::20                       0                       # What read queue length does an incoming req see
system.mem_ctrl.rdQLenPdf::21                       0                       # What read queue length does an incoming req see
system.mem_ctrl.rdQLenPdf::22                       0                       # What read queue length does an incoming req see
system.mem_ctrl.rdQLenPdf::23                       0                       # What read queue length does an incoming req see
system.mem_ctrl.rdQLenPdf::24                       0                       # What read queue length does an incoming req see
system.mem_ctrl.rdQLenPdf::25                       0                       # What read queue length does an incoming req see
system.mem_ctrl.rdQLenPdf::26                       0                       # What read queue length does an incoming req see
system.mem_ctrl.rdQLenPdf::27                       0                       # What read queue length does an incoming req see
system.mem_ctrl.rdQLenPdf::28                       0                       # What read queue length does an incoming req see
system.mem_ctrl.rdQLenPdf::29                       0                       # What read queue length does an incoming req see
system.mem_ctrl.rdQLenPdf::30                       0                       # What read queue length does an incoming req see
system.mem_ctrl.rdQLenPdf::31                       0                       # What read queue length does an incoming req see
system.mem_ctrl.wrQLenPdf::0                        0                       # What write queue length does an incoming req see
system.mem_ctrl.wrQLenPdf::1                        0                       # What write queue length does an incoming req see
system.mem_ctrl.wrQLenPdf::2                        0                       # What write queue length does an incoming req see
system.mem_ctrl.wrQLenPdf::3                        0                       # What write queue length does an incoming req see
system.mem_ctrl.wrQLenPdf::4                        0                       # What write queue length does an incoming req see
system.mem_ctrl.wrQLenPdf::5                        0                       # What write queue length does an incoming req see
system.mem_ctrl.wrQLenPdf::6                        0                       # What write queue length does an incoming req see
system.mem_ctrl.wrQLenPdf::7                        0                       # What write queue length does an incoming req see
system.mem_ctrl.wrQLenPdf::8                        0                       # What write queue length does an incoming req see
system.mem_ctrl.wrQLenPdf::9                        0                       # What write queue length does an incoming req see
system.mem_ctrl.wrQLenPdf::10                       0                       # What write queue length does an incoming req see
system.mem_ctrl.wrQLenPdf::11                       0                       # What write queue length does an incoming req see
system.mem_ctrl.wrQLenPdf::12                       0                       # What write queue length does an incoming req see
system.mem_ctrl.wrQLenPdf::13                       0                       # What write queue length does an incoming req see
system.mem_ctrl.wrQLenPdf::14                       0                       # What write queue length does an incoming req see
system.mem_ctrl.wrQLenPdf::15                       0                       # What write queue length does an incoming req see
system.mem_ctrl.wrQLenPdf::16                       0                       # What write queue length does an incoming req see
system.mem_ctrl.wrQLenPdf::17                       0                       # What write queue length does an incoming req see
system.mem_ctrl.wrQLenPdf::18                       0                       # What write queue length does an incoming req see
system.mem_ctrl.wrQLenPdf::19                       0                       # What write queue length does an incoming req see
system.mem_ctrl.wrQLenPdf::20                       0                       # What write queue length does an incoming req see
system.mem_ctrl.wrQLenPdf::21                       0                       # What write queue length does an incoming req see
system.mem_ctrl.wrQLenPdf::22                       0                       # What write queue length does an incoming req see
system.mem_ctrl.wrQLenPdf::23                       0                       # What write queue length does an incoming req see
system.mem_ctrl.wrQLenPdf::24                       0                       # What write queue length does an incoming req see
system.mem_ctrl.wrQLenPdf::25                       0                       # What write queue length does an incoming req see
system.mem_ctrl.wrQLenPdf::26                       0                       # What write queue length does an incoming req see
system.mem_ctrl.wrQLenPdf::27                       0                       # What write queue length does an incoming req see
system.mem_ctrl.wrQLenPdf::28                       0                       # What write queue length does an incoming req see
system.mem_ctrl.wrQLenPdf::29                       0                       # What write queue length does an incoming req see
system.mem_ctrl.wrQLenPdf::30                       0                       # What write queue length does an incoming req see
system.mem_ctrl.wrQLenPdf::31                       0                       # What write queue length does an incoming req see
system.mem_ctrl.wrQLenPdf::32                       0                       # What write queue length does an incoming req see
system.mem_ctrl.wrQLenPdf::33                       0                       # What write queue length does an incoming req see
system.mem_ctrl.wrQLenPdf::34                       0                       # What write queue length does an incoming req see
system.mem_ctrl.wrQLenPdf::35                       0                       # What write queue length does an incoming req see
system.mem_ctrl.wrQLenPdf::36                       0                       # What write queue length does an incoming req see
system.mem_ctrl.wrQLenPdf::37                       0                       # What write queue length does an incoming req see
system.mem_ctrl.wrQLenPdf::38                       0                       # What write queue length does an incoming req see
system.mem_ctrl.wrQLenPdf::39                       0                       # What write queue length does an incoming req see
system.mem_ctrl.wrQLenPdf::40                       0                       # What write queue length does an incoming req see
system.mem_ctrl.wrQLenPdf::41                       0                       # What write queue length does an incoming req see
system.mem_ctrl.wrQLenPdf::42                       0                       # What write queue length does an incoming req see
system.mem_ctrl.wrQLenPdf::43                       0                       # What write queue length does an incoming req see
system.mem_ctrl.wrQLenPdf::44                       0                       # What write queue length does an incoming req see
system.mem_ctrl.wrQLenPdf::45                       0                       # What write queue length does an incoming req see
system.mem_ctrl.wrQLenPdf::46                       0                       # What write queue length does an incoming req see
system.mem_ctrl.wrQLenPdf::47                       0                       # What write queue length does an incoming req see
system.mem_ctrl.wrQLenPdf::48                       0                       # What write queue length does an incoming req see
system.mem_ctrl.wrQLenPdf::49                       0                       # What write queue length does an incoming req see
system.mem_ctrl.wrQLenPdf::50                       0                       # What write queue length does an incoming req see
system.mem_ctrl.wrQLenPdf::51                       0                       # What write queue length does an incoming req see
system.mem_ctrl.wrQLenPdf::52                       0                       # What write queue length does an incoming req see
system.mem_ctrl.wrQLenPdf::53                       0                       # What write queue length does an incoming req see
system.mem_ctrl.wrQLenPdf::54                       0                       # What write queue length does an incoming req see
system.mem_ctrl.wrQLenPdf::55                       0                       # What write queue length does an incoming req see
system.mem_ctrl.wrQLenPdf::56                       0                       # What write queue length does an incoming req see
system.mem_ctrl.wrQLenPdf::57                       0                       # What write queue length does an incoming req see
system.mem_ctrl.wrQLenPdf::58                       0                       # What write queue length does an incoming req see
system.mem_ctrl.wrQLenPdf::59                       0                       # What write queue length does an incoming req see
system.mem_ctrl.wrQLenPdf::60                       0                       # What write queue length does an incoming req see
system.mem_ctrl.wrQLenPdf::61                       0                       # What write queue length does an incoming req see
system.mem_ctrl.wrQLenPdf::62                       0                       # What write queue length does an incoming req see
system.mem_ctrl.wrQLenPdf::63                       0                       # What write queue length does an incoming req see
system.mem_ctrl.bytesPerActivate::samples          177                       # Bytes accessed per row activation
system.mem_ctrl.bytesPerActivate::mean     280.587571                       # Bytes accessed per row activation
system.mem_ctrl.bytesPerActivate::gmean    177.727496                       # Bytes accessed per row activation
system.mem_ctrl.bytesPerActivate::stdev    290.889573                       # Bytes accessed per row activation
system.mem_ctrl.bytesPerActivate::0-127            61     34.46%     34.46% # Bytes accessed per row activation
system.mem_ctrl.bytesPerActivate::128-255           45     25.42%     59.89% # Bytes accessed per row activation
system.mem_ctrl.bytesPerActivate::256-383           28     15.82%     75.71% # Bytes accessed per row activation
system.mem_ctrl.bytesPerActivate::384-511           13      7.34%     83.05% # Bytes accessed per row activation
system.mem_ctrl.bytesPerActivate::512-639            6      3.39%     86.44% # Bytes accessed per row activation
system.mem_ctrl.bytesPerActivate::640-767            5      2.82%     89.27% # Bytes accessed per row activation
system.mem_ctrl.bytesPerActivate::768-895            2      1.13%     90.40% # Bytes accessed per row activation
system.mem_ctrl.bytesPerActivate::896-1023            2      1.13%     91.53% # Bytes accessed per row activation
system.mem_ctrl.bytesPerActivate::1024-1151           15      8.47%    100.00% # Bytes accessed per row activation
system.mem_ctrl.bytesPerActivate::total           177                       # Bytes accessed per row activation
system.mem_ctrl.masterReadBytes::.cpu.inst        35392                       # Per-master bytes read from memory
system.mem_ctrl.masterReadBytes::.cpu.data        16512                       # Per-master bytes read from memory
system.mem_ctrl.masterReadRate::.cpu.inst 792423258.625707983971                       # Per-master bytes read from memory rate (Bytes/sec)
system.mem_ctrl.masterReadRate::.cpu.data 369701990.461903572083                       # Per-master bytes read from memory rate (Bytes/sec)
system.mem_ctrl.masterReadAccesses::.cpu.inst          553                       # Per-master read serviced memory accesses
system.mem_ctrl.masterReadAccesses::.cpu.data          258                       # Per-master read serviced memory accesses
system.mem_ctrl.masterReadTotalLat::.cpu.inst     18496250                       # Per-master read total memory access latency
system.mem_ctrl.masterReadTotalLat::.cpu.data      9097000                       # Per-master read total memory access latency
system.mem_ctrl.masterReadAvgLat::.cpu.inst     33447.11                       # Per-master read average memory access latency
system.mem_ctrl.masterReadAvgLat::.cpu.data     35259.69                       # Per-master read average memory access latency
system.mem_ctrl.totQLat                      12387000                       # Total ticks spent queuing
system.mem_ctrl.totMemAccLat                 27593250                       # Total ticks spent from burst creation until serviced by the DRAM
system.mem_ctrl.totBusLat                     4055000                       # Total ticks spent in databus transfers
system.mem_ctrl.avgQLat                      15273.74                       # Average queueing delay per DRAM burst
system.mem_ctrl.avgBusLat                     5000.00                       # Average bus latency per DRAM burst
system.mem_ctrl.avgMemAccLat                 34023.74                       # Average memory access latency per DRAM burst
system.mem_ctrl.avgRdBW                       1162.13                       # Average DRAM read bandwidth in MiByte/s
system.mem_ctrl.avgWrBW                          0.00                       # Average achieved write bandwidth in MiByte/s
system.mem_ctrl.avgRdBWSys                    1162.13                       # Average system read bandwidth in MiByte/s
system.mem_ctrl.avgWrBWSys                       0.00                       # Average system write bandwidth in MiByte/s
system.mem_ctrl.peakBW                       12800.00                       # Theoretical peak bandwidth in MiByte/s
system.mem_ctrl.busUtil                          9.08                       # Data bus utilization in percentage
system.mem_ctrl.busUtilRead                      9.08                       # Data bus utilization in percentage for reads
system.mem_ctrl.busUtilWrite                     0.00                       # Data bus utilization in percentage for writes
system.mem_ctrl.avgRdQLen                        1.65                       # Average read queue length when enqueuing
system.mem_ctrl.avgWrQLen                        0.00                       # Average write queue length when enqueuing
system.mem_ctrl.readRowHits                       622                       # Number of row buffer hits during reads
system.mem_ctrl.writeRowHits                        0                       # Number of row buffer hits during writes
system.mem_ctrl.readRowHitRate                  76.70                       # Row buffer hit rate for reads
system.mem_ctrl.writeRowHitRate                   nan                       # Row buffer hit rate for writes
system.mem_ctrl.avgGap                       54958.69                       # Average gap between requests
system.mem_ctrl.pageHitRate                     76.70                       # Row buffer hit rate, read and write combined
system.mem_ctrl_0.actEnergy                    592620                       # Energy for activate commands per rank (pJ)
system.mem_ctrl_0.preEnergy                    292215                       # Energy for precharge commands per rank (pJ)
system.mem_ctrl_0.readEnergy                  2713200                       # Energy for read commands per rank (pJ)
system.mem_ctrl_0.writeEnergy                       0                       # Energy for write commands per rank (pJ)
system.mem_ctrl_0.refreshEnergy          3073200.000000                       # Energy for refresh commands per rank (pJ)
system.mem_ctrl_0.actBackEnergy               5116320                       # Energy for active background per rank (pJ)
system.mem_ctrl_0.preBackEnergy                106560                       # Energy for precharge background per rank (pJ)
system.mem_ctrl_0.actPowerDownEnergy         14924310                       # Energy for active power-down per rank (pJ)
system.mem_ctrl_0.prePowerDownEnergy           168000                       # Energy for precharge power-down per rank (pJ)
system.mem_ctrl_0.selfRefreshEnergy                 0                       # Energy for self refresh per rank (pJ)
system.mem_ctrl_0.totalEnergy                26986425                       # Total energy per rank (pJ)
system.mem_ctrl_0.averagePower             604.223294                       # Core power per rank (mW)
system.mem_ctrl_0.totalIdleTime              33107750                       # Total Idle time Per DRAM Rank
system.mem_ctrl_0.memoryStateTime::IDLE         42500                       # Time in different power states
system.mem_ctrl_0.memoryStateTime::REF        1300000                       # Time in different power states
system.mem_ctrl_0.memoryStateTime::SREF             0                       # Time in different power states
system.mem_ctrl_0.memoryStateTime::PRE_PDN       437000                       # Time in different power states
system.mem_ctrl_0.memoryStateTime::ACT       10164500                       # Time in different power states
system.mem_ctrl_0.memoryStateTime::ACT_PDN     32719000                       # Time in different power states
system.mem_ctrl_1.actEnergy                    756840                       # Energy for activate commands per rank (pJ)
system.mem_ctrl_1.preEnergy                    379500                       # Energy for precharge commands per rank (pJ)
system.mem_ctrl_1.readEnergy                  3077340                       # Energy for read commands per rank (pJ)
system.mem_ctrl_1.writeEnergy                       0                       # Energy for write commands per rank (pJ)
system.mem_ctrl_1.refreshEnergy          3073200.000000                       # Energy for refresh commands per rank (pJ)
system.mem_ctrl_1.actBackEnergy               5380230                       # Energy for active background per rank (pJ)
system.mem_ctrl_1.preBackEnergy                108000                       # Energy for precharge background per rank (pJ)
system.mem_ctrl_1.actPowerDownEnergy         14647860                       # Energy for active power-down per rank (pJ)
system.mem_ctrl_1.prePowerDownEnergy           177120                       # Energy for precharge power-down per rank (pJ)
system.mem_ctrl_1.selfRefreshEnergy                 0                       # Energy for self refresh per rank (pJ)
system.mem_ctrl_1.totalEnergy                27600090                       # Total energy per rank (pJ)
system.mem_ctrl_1.averagePower             617.963191                       # Core power per rank (mW)
system.mem_ctrl_1.totalIdleTime              32354250                       # Total Idle time Per DRAM Rank
system.mem_ctrl_1.memoryStateTime::IDLE        130000                       # Time in different power states
system.mem_ctrl_1.memoryStateTime::REF        1300000                       # Time in different power states
system.mem_ctrl_1.memoryStateTime::SREF             0                       # Time in different power states
system.mem_ctrl_1.memoryStateTime::PRE_PDN       460250                       # Time in different power states
system.mem_ctrl_1.memoryStateTime::ACT       10645000                       # Time in different power states
system.mem_ctrl_1.memoryStateTime::ACT_PDN     32127750                       # Time in different power states
system.pwrStateResidencyTicks::UNDEFINED     44663000                       # Cumulative time (in ticks) in various power states
system.cpu.branchPred.lookups                    5649                       # Number of BP lookups
system.cpu.branchPred.condPredicted              5649                       # Number of conditional branches predicted
system.cpu.branchPred.condIncorrect               932                       # Number of conditional branches incorrect
system.cpu.branchPred.BTBLookups                 5148                       # Number of BTB lookups
system.cpu.branchPred.BTBHits                       0                       # Number of BTB hits
system.cpu.branchPred.BTBCorrect                    0                       # Number of correct BTB predictions (this stat may not work properly.
system.cpu.branchPred.BTBHitPct              0.000000                       # BTB Hit Percentage
system.cpu.branchPred.usedRAS                     421                       # Number of times the RAS was used to get a target.
system.cpu.branchPred.RASInCorrect                138                       # Number of incorrect RAS predictions.
system.cpu.branchPred.indirectLookups            5148                       # Number of indirect predictor lookups.
system.cpu.branchPred.indirectHits                542                       # Number of indirect target hits.
system.cpu.branchPred.indirectMisses             4606                       # Number of indirect misses.
system.cpu.branchPredindirectMispredicted          751                       # Number of mispredicted indirect branches.
system.cpu.dtb.walker.pwrStateResidencyTicks::UNDEFINED     44663000                       # Cumulative time (in ticks) in various power states
system.cpu.dtb.rdAccesses                        2579                       # TLB accesses on read requests
system.cpu.dtb.wrAccesses                        1985                       # TLB accesses on write requests
system.cpu.dtb.rdMisses                           104                       # TLB misses on read requests
system.cpu.dtb.wrMisses                            51                       # TLB misses on write requests
system.cpu.apic_clk_domain.clock                 8000                       # Clock period in ticks
system.cpu.interrupts.pwrStateResidencyTicks::UNDEFINED     44663000                       # Cumulative time (in ticks) in various power states
system.cpu.itb.walker.pwrStateResidencyTicks::UNDEFINED     44663000                       # Cumulative time (in ticks) in various power states
system.cpu.itb.rdAccesses                           0                       # TLB accesses on read requests
system.cpu.itb.wrAccesses                        3295                       # TLB accesses on write requests
system.cpu.itb.rdMisses                             0                       # TLB misses on read requests
system.cpu.itb.wrMisses                           145                       # TLB misses on write requests
system.cpu.workload.numSyscalls                    11                       # Number of system calls
system.cpu.pwrStateResidencyTicks::ON        44663000                       # Cumulative time (in ticks) in various power states
system.cpu.numCycles                            89327                       # number of cpu cycles simulated
system.cpu.numWorkItemsStarted                      0                       # number of work items this cpu started
system.cpu.numWorkItemsCompleted                    0                       # number of work items this cpu completed
system.cpu.fetch.icacheStallCycles              34794                       # Number of cycles fetch is stalled on an Icache miss
system.cpu.fetch.Insts                          25395                       # Number of instructions fetch has processed
system.cpu.fetch.Branches                        5649                       # Number of branches that fetch encountered
system.cpu.fetch.predictedBranches                963                       # Number of branches that fetch has predicted taken
system.cpu.fetch.Cycles                         27746                       # Number of cycles fetch has run and was not squashing or blocked
system.cpu.fetch.SquashCycles                    1996                       # Number of cycles fetch has spent squashing
system.cpu.fetch.MiscStallCycles                   70                       # Number of cycles fetch has spent waiting on interrupts, or bad addresses, or out of MSHRs
system.cpu.fetch.PendingTrapStallCycles           836                       # Number of stall cycles due to pending traps
system.cpu.fetch.PendingQuiesceStallCycles           24                       # Number of stall cycles due to pending quiesce instructions
system.cpu.fetch.IcacheWaitRetryStallCycles           93                       # Number of stall cycles due to full MSHR
system.cpu.fetch.CacheLines                      3199                       # Number of cache lines fetched
system.cpu.fetch.IcacheSquashes                   369                       # Number of outstanding Icache misses that were squashed
system.cpu.fetch.rateDist::samples              64561                       # Number of instructions fetched each cycle (Total)
system.cpu.fetch.rateDist::mean              0.793730                       # Number of instructions fetched each cycle (Total)
system.cpu.fetch.rateDist::stdev             1.562336                       # Number of instructions fetched each cycle (Total)
system.cpu.fetch.rateDist::underflows               0      0.00%      0.00% # Number of instructions fetched each cycle (Total)
system.cpu.fetch.rateDist::0                    50788     78.67%     78.67% # Number of instructions fetched each cycle (Total)
system.cpu.fetch.rateDist::1                      569      0.88%     79.55% # Number of instructions fetched each cycle (Total)
system.cpu.fetch.rateDist::2                      706      1.09%     80.64% # Number of instructions fetched each cycle (Total)
system.cpu.fetch.rateDist::3                      729      1.13%     81.77% # Number of instructions fetched each cycle (Total)
system.cpu.fetch.rateDist::4                    11769     18.23%    100.00% # Number of instructions fetched each cycle (Total)
system.cpu.fetch.rateDist::overflows                0      0.00%    100.00% # Number of instructions fetched each cycle (Total)
system.cpu.fetch.rateDist::min_value                0                       # Number of instructions fetched each cycle (Total)
system.cpu.fetch.rateDist::max_value                4                       # Number of instructions fetched each cycle (Total)
system.cpu.fetch.rateDist::total                64561                       # Number of instructions fetched each cycle (Total)
system.cpu.fetch.branchRate                  0.063240                       # Number of branch fetches per cycle
system.cpu.fetch.rate                        0.284293                       # Number of inst fetches per cycle
system.cpu.decode.IdleCycles                    33986                       # Number of cycles decode is idle
system.cpu.decode.BlockedCycles                 17867                       # Number of cycles decode is blocked
system.cpu.decode.RunCycles                     10941                       # Number of cycles decode is running
system.cpu.decode.UnblockCycles                   769                       # Number of cycles decode is unblocking
system.cpu.decode.SquashCycles                    998                       # Number of cycles decode is squashing
system.cpu.decode.DecodedInsts                  41551                       # Number of instructions handled by decode
system.cpu.decode.SquashedInsts                  2684                       # Number of squashed instructions handled by decode
system.cpu.rename.SquashCycles                    998                       # Number of cycles rename is squashing
system.cpu.rename.IdleCycles                    35744                       # Number of cycles rename is idle
system.cpu.rename.BlockCycles                    5526                       # Number of cycles rename is blocking
system.cpu.rename.serializeStallCycles           2103                       # count of cycles rename stalled for serializing inst
system.cpu.rename.RunCycles                      9917                       # Number of cycles rename is running
system.cpu.rename.UnblockCycles                 10273                       # Number of cycles rename is unblocking
system.cpu.rename.RenamedInsts                  38096                       # Number of instructions processed by rename
system.cpu.rename.SquashedInsts                  1233                       # Number of squashed instructions processed by rename
system.cpu.rename.ROBFullEvents                    39                       # Number of times rename has blocked due to ROB full
system.cpu.rename.IQFullEvents                    947                       # Number of times rename has blocked due to IQ full
system.cpu.rename.SQFullEvents                   9231                       # Number of times rename has blocked due to SQ full
system.cpu.rename.FullRegisterEvents                7                       # Number of times there has been no free registers
system.cpu.rename.RenamedOperands               40911                       # Number of destination operands rename has renamed
system.cpu.rename.RenameLookups                 93290                       # Number of register rename lookups that rename has made
system.cpu.rename.int_rename_lookups            52265                       # Number of integer rename lookups
system.cpu.rename.fp_rename_lookups              4332                       # Number of floating rename lookups
system.cpu.rename.CommittedMaps                 16872                       # Number of HB maps that are committed
system.cpu.rename.UndoneMaps                    24039                       # Number of HB maps that are undone due to squashing
system.cpu.rename.serializingInsts                 38                       # count of serializing insts renamed
system.cpu.rename.tempSerializingInsts             33                       # count of temporary serializing insts renamed
system.cpu.rename.skidInsts                      3442                       # count of insts added to the skid buffer
system.cpu.memDep0.insertedLoads                 3819                       # Number of loads inserted to the mem dependence unit.
system.cpu.memDep0.insertedStores                3049                       # Number of stores inserted to the mem dependence unit.
system.cpu.memDep0.conflictingLoads                36                       # Number of conflicting loads.
system.cpu.memDep0.conflictingStores               68                       # Number of conflicting stores.
system.cpu.iq.iqInstsAdded                      35109                       # Number of instructions added to the IQ (excludes non-spec)
system.cpu.iq.iqNonSpecInstsAdded                 113                       # Number of non-speculative instructions added to the IQ
system.cpu.iq.iqInstsIssued                     26826                       # Number of instructions issued
system.cpu.iq.iqSquashedInstsIssued              1941                       # Number of squashed instructions issued
system.cpu.iq.iqSquashedInstsExamined           19598                       # Number of squashed instructions iterated over during squash; mainly for profiling
system.cpu.iq.iqSquashedOperandsExamined        29644                       # Number of squashed operands that are examined and possibly removed from graph
system.cpu.iq.iqSquashedNonSpecRemoved            102                       # Number of squashed non-spec instructions that were removed
system.cpu.iq.issued_per_cycle::samples         64561                       # Number of insts issued each cycle
system.cpu.iq.issued_per_cycle::mean         0.415514                       # Number of insts issued each cycle
system.cpu.iq.issued_per_cycle::stdev        0.895443                       # Number of insts issued each cycle
system.cpu.iq.issued_per_cycle::underflows            0      0.00%      0.00% # Number of insts issued each cycle
system.cpu.iq.issued_per_cycle::0               51623     79.96%     79.96% # Number of insts issued each cycle
system.cpu.iq.issued_per_cycle::1                2973      4.60%     84.56% # Number of insts issued each cycle
system.cpu.iq.issued_per_cycle::2                6274      9.72%     94.28% # Number of insts issued each cycle
system.cpu.iq.issued_per_cycle::3                3459      5.36%     99.64% # Number of insts issued each cycle
system.cpu.iq.issued_per_cycle::4                 232      0.36%    100.00% # Number of insts issued each cycle
system.cpu.iq.issued_per_cycle::overflows            0      0.00%    100.00% # Number of insts issued each cycle
system.cpu.iq.issued_per_cycle::min_value            0                       # Number of insts issued each cycle
system.cpu.iq.issued_per_cycle::max_value            4                       # Number of insts issued each cycle
system.cpu.iq.issued_per_cycle::total           64561                       # Number of insts issued each cycle
system.cpu.iq.fu_full::No_OpClass                   0      0.00%      0.00% # attempts to use FU when none available
system.cpu.iq.fu_full::IntAlu                    6032     76.09%     76.09% # attempts to use FU when none available
system.cpu.iq.fu_full::IntMult                      0      0.00%     76.09% # attempts to use FU when none available
system.cpu.iq.fu_full::IntDiv                       0      0.00%     76.09% # attempts to use FU when none available
system.cpu.iq.fu_full::FloatAdd                     0      0.00%     76.09% # attempts to use FU when none available
system.cpu.iq.fu_full::FloatCmp                     0      0.00%     76.09% # attempts to use FU when none available
system.cpu.iq.fu_full::FloatCvt                     0      0.00%     76.09% # attempts to use FU when none available
system.cpu.iq.fu_full::FloatMult                    0      0.00%     76.09% # attempts to use FU when none available
system.cpu.iq.fu_full::FloatMultAcc                 0      0.00%     76.09% # attempts to use FU when none available
system.cpu.iq.fu_full::FloatDiv                     0      0.00%     76.09% # attempts to use FU when none available
system.cpu.iq.fu_full::FloatMisc                    0      0.00%     76.09% # attempts to use FU when none available
system.cpu.iq.fu_full::FloatSqrt                    0      0.00%     76.09% # attempts to use FU when none available
system.cpu.iq.fu_full::SimdAdd                    268      3.38%     79.48% # attempts to use FU when none available
system.cpu.iq.fu_full::SimdAddAcc                   0      0.00%     79.48% # attempts to use FU when none available
system.cpu.iq.fu_full::SimdAlu                     79      1.00%     80.47% # attempts to use FU when none available
system.cpu.iq.fu_full::SimdCmp                      1      0.01%     80.48% # attempts to use FU when none available
system.cpu.iq.fu_full::SimdCvt                     70      0.88%     81.37% # attempts to use FU when none available
system.cpu.iq.fu_full::SimdMisc                   187      2.36%     83.73% # attempts to use FU when none available
system.cpu.iq.fu_full::SimdMult                     0      0.00%     83.73% # attempts to use FU when none available
system.cpu.iq.fu_full::SimdMultAcc                  0      0.00%     83.73% # attempts to use FU when none available
system.cpu.iq.fu_full::SimdShift                  124      1.56%     85.29% # attempts to use FU when none available
system.cpu.iq.fu_full::SimdShiftAcc                 0      0.00%     85.29% # attempts to use FU when none available
system.cpu.iq.fu_full::SimdSqrt                     0      0.00%     85.29% # attempts to use FU when none available
system.cpu.iq.fu_full::SimdFloatAdd                 0      0.00%     85.29% # attempts to use FU when none available
system.cpu.iq.fu_full::SimdFloatAlu                 0      0.00%     85.29% # attempts to use FU when none available
system.cpu.iq.fu_full::SimdFloatCmp                 0      0.00%     85.29% # attempts to use FU when none available
system.cpu.iq.fu_full::SimdFloatCvt                 0      0.00%     85.29% # attempts to use FU when none available
system.cpu.iq.fu_full::SimdFloatDiv                 0      0.00%     85.29% # attempts to use FU when none available
system.cpu.iq.fu_full::SimdFloatMisc                0      0.00%     85.29% # attempts to use FU when none available
system.cpu.iq.fu_full::SimdFloatMult                0      0.00%     85.29% # attempts to use FU when none available
system.cpu.iq.fu_full::SimdFloatMultAcc             0      0.00%     85.29% # attempts to use FU when none available
system.cpu.iq.fu_full::SimdFloatSqrt                0      0.00%     85.29% # attempts to use FU when none available
system.cpu.iq.fu_full::SimdAes                      0      0.00%     85.29% # attempts to use FU when none available
system.cpu.iq.fu_full::SimdAesMix                   0      0.00%     85.29% # attempts to use FU when none available
system.cpu.iq.fu_full::SimdSha1Hash                 0      0.00%     85.29% # attempts to use FU when none available
system.cpu.iq.fu_full::SimdSha1Hash2                0      0.00%     85.29% # attempts to use FU when none available
system.cpu.iq.fu_full::SimdSha256Hash               0      0.00%     85.29% # attempts to use FU when none available
system.cpu.iq.fu_full::SimdSha256Hash2              0      0.00%     85.29% # attempts to use FU when none available
system.cpu.iq.fu_full::SimdShaSigma2                0      0.00%     85.29% # attempts to use FU when none available
system.cpu.iq.fu_full::SimdShaSigma3                0      0.00%     85.29% # attempts to use FU when none available
system.cpu.iq.fu_full::MemRead                    845     10.66%     95.95% # attempts to use FU when none available
system.cpu.iq.fu_full::MemWrite                   321      4.05%    100.00% # attempts to use FU when none available
system.cpu.iq.fu_full::FloatMemRead                 0      0.00%    100.00% # attempts to use FU when none available
system.cpu.iq.fu_full::FloatMemWrite                0      0.00%    100.00% # attempts to use FU when none available
system.cpu.iq.fu_full::IprAccess                    0      0.00%    100.00% # attempts to use FU when none available
system.cpu.iq.fu_full::InstPrefetch                 0      0.00%    100.00% # attempts to use FU when none available
system.cpu.iq.FU_type_0::No_OpClass               420      1.57%      1.57% # Type of FU issued
system.cpu.iq.FU_type_0::IntAlu                 20145     75.10%     76.66% # Type of FU issued
system.cpu.iq.FU_type_0::IntMult                    4      0.01%     76.68% # Type of FU issued
system.cpu.iq.FU_type_0::IntDiv                    31      0.12%     76.79% # Type of FU issued
system.cpu.iq.FU_type_0::FloatAdd                  17      0.06%     76.85% # Type of FU issued
system.cpu.iq.FU_type_0::FloatCmp                   0      0.00%     76.85% # Type of FU issued
system.cpu.iq.FU_type_0::FloatCvt                   0      0.00%     76.85% # Type of FU issued
system.cpu.iq.FU_type_0::FloatMult                  0      0.00%     76.85% # Type of FU issued
system.cpu.iq.FU_type_0::FloatMultAcc               0      0.00%     76.85% # Type of FU issued
system.cpu.iq.FU_type_0::FloatDiv                   0      0.00%     76.85% # Type of FU issued
system.cpu.iq.FU_type_0::FloatMisc                  0      0.00%     76.85% # Type of FU issued
system.cpu.iq.FU_type_0::FloatSqrt                  0      0.00%     76.85% # Type of FU issued
system.cpu.iq.FU_type_0::SimdAdd                  377      1.41%     78.26% # Type of FU issued
system.cpu.iq.FU_type_0::SimdAddAcc                 0      0.00%     78.26% # Type of FU issued
system.cpu.iq.FU_type_0::SimdAlu                  102      0.38%     78.64% # Type of FU issued
system.cpu.iq.FU_type_0::SimdCmp                    6      0.02%     78.66% # Type of FU issued
system.cpu.iq.FU_type_0::SimdCvt                  164      0.61%     79.27% # Type of FU issued
system.cpu.iq.FU_type_0::SimdMisc                 275      1.03%     80.30% # Type of FU issued
system.cpu.iq.FU_type_0::SimdMult                   0      0.00%     80.30% # Type of FU issued
system.cpu.iq.FU_type_0::SimdMultAcc                0      0.00%     80.30% # Type of FU issued
system.cpu.iq.FU_type_0::SimdShift                186      0.69%     80.99% # Type of FU issued
system.cpu.iq.FU_type_0::SimdShiftAcc               0      0.00%     80.99% # Type of FU issued
system.cpu.iq.FU_type_0::SimdSqrt                   0      0.00%     80.99% # Type of FU issued
system.cpu.iq.FU_type_0::SimdFloatAdd               0      0.00%     80.99% # Type of FU issued
system.cpu.iq.FU_type_0::SimdFloatAlu               0      0.00%     80.99% # Type of FU issued
system.cpu.iq.FU_type_0::SimdFloatCmp               0      0.00%     80.99% # Type of FU issued
system.cpu.iq.FU_type_0::SimdFloatCvt               0      0.00%     80.99% # Type of FU issued
system.cpu.iq.FU_type_0::SimdFloatDiv               0      0.00%     80.99% # Type of FU issued
system.cpu.iq.FU_type_0::SimdFloatMisc              0      0.00%     80.99% # Type of FU issued
system.cpu.iq.FU_type_0::SimdFloatMult              0      0.00%     80.99% # Type of FU issued
system.cpu.iq.FU_type_0::SimdFloatMultAcc            0      0.00%     80.99% # Type of FU issued
system.cpu.iq.FU_type_0::SimdFloatSqrt              0      0.00%     80.99% # Type of FU issued
system.cpu.iq.FU_type_0::SimdAes                    0      0.00%     80.99% # Type of FU issued
system.cpu.iq.FU_type_0::SimdAesMix                 0      0.00%     80.99% # Type of FU issued
system.cpu.iq.FU_type_0::SimdSha1Hash               0      0.00%     80.99% # Type of FU issued
system.cpu.iq.FU_type_0::SimdSha1Hash2              0      0.00%     80.99% # Type of FU issued
system.cpu.iq.FU_type_0::SimdSha256Hash             0      0.00%     80.99% # Type of FU issued
system.cpu.iq.FU_type_0::SimdSha256Hash2            0      0.00%     80.99% # Type of FU issued
system.cpu.iq.FU_type_0::SimdShaSigma2              0      0.00%     80.99% # Type of FU issued
system.cpu.iq.FU_type_0::SimdShaSigma3              0      0.00%     80.99% # Type of FU issued
system.cpu.iq.FU_type_0::MemRead                 2728     10.17%     91.16% # Type of FU issued
system.cpu.iq.FU_type_0::MemWrite                1738      6.48%     97.64% # Type of FU issued
system.cpu.iq.FU_type_0::FloatMemRead             191      0.71%     98.35% # Type of FU issued
system.cpu.iq.FU_type_0::FloatMemWrite            442      1.65%    100.00% # Type of FU issued
system.cpu.iq.FU_type_0::IprAccess                  0      0.00%    100.00% # Type of FU issued
system.cpu.iq.FU_type_0::InstPrefetch               0      0.00%    100.00% # Type of FU issued
system.cpu.iq.FU_type_0::total                  26826                       # Type of FU issued
system.cpu.iq.rate                           0.300312                       # Inst issue rate
system.cpu.iq.fu_busy_cnt                        7927                       # FU busy when requested
system.cpu.iq.fu_busy_rate                   0.295497                       # FU busy rate (busy events/executed inst)
system.cpu.iq.int_inst_queue_reads             122683                       # Number of integer instruction queue reads
system.cpu.iq.int_inst_queue_writes             52285                       # Number of integer instruction queue writes
system.cpu.iq.int_inst_queue_wakeup_accesses        21379                       # Number of integer instruction queue wakeup accesses
system.cpu.iq.fp_inst_queue_reads                5398                       # Number of floating instruction queue reads
system.cpu.iq.fp_inst_queue_writes               2543                       # Number of floating instruction queue writes
system.cpu.iq.fp_inst_queue_wakeup_accesses         2207                       # Number of floating instruction queue wakeup accesses
system.cpu.iq.vec_inst_queue_reads                  0                       # Number of vector instruction queue reads
system.cpu.iq.vec_inst_queue_writes                 0                       # Number of vector instruction queue writes
system.cpu.iq.vec_inst_queue_wakeup_accesses            0                       # Number of vector instruction queue wakeup accesses
system.cpu.iq.int_alu_accesses                  31223                       # Number of integer alu accesses
system.cpu.iq.fp_alu_accesses                    3110                       # Number of floating point alu accesses
system.cpu.iq.vec_alu_accesses                      0                       # Number of vector alu accesses
system.cpu.iew.lsq.thread0.forwLoads               63                       # Number of loads that had data forwarded from stores
system.cpu.iew.lsq.thread0.invAddrLoads             0                       # Number of loads ignored due to an invalid address
system.cpu.iew.lsq.thread0.squashedLoads         2324                       # Number of loads squashed
system.cpu.iew.lsq.thread0.ignoredResponses            5                       # Number of memory responses ignored because the instruction is squashed
system.cpu.iew.lsq.thread0.memOrderViolation            8                       # Number of memory ordering violations
system.cpu.iew.lsq.thread0.squashedStores         1515                       # Number of stores squashed
system.cpu.iew.lsq.thread0.invAddrSwpfs             0                       # Number of software prefetches ignored due to an invalid address
system.cpu.iew.lsq.thread0.blockedLoads             0                       # Number of blocked loads due to partial load-store forwarding
system.cpu.iew.lsq.thread0.rescheduledLoads            1                       # Number of loads that were rescheduled
system.cpu.iew.lsq.thread0.cacheBlocked            18                       # Number of times an access to memory failed due to the cache being blocked
system.cpu.iew.iewIdleCycles                        0                       # Number of cycles IEW is idle
system.cpu.iew.iewSquashCycles                    998                       # Number of cycles IEW is squashing
system.cpu.iew.iewBlockCycles                    1302                       # Number of cycles IEW is blocking
system.cpu.iew.iewUnblockCycles                  1729                       # Number of cycles IEW is unblocking
system.cpu.iew.iewDispatchedInsts               35222                       # Number of instructions dispatched to IQ
system.cpu.iew.iewDispSquashedInsts               967                       # Number of squashed instructions skipped by dispatch
system.cpu.iew.iewDispLoadInsts                  3819                       # Number of dispatched load instructions
system.cpu.iew.iewDispStoreInsts                 3049                       # Number of dispatched store instructions
system.cpu.iew.iewDispNonSpecInsts                 53                       # Number of dispatched non-speculative instructions
system.cpu.iew.iewIQFullEvents                     19                       # Number of times the IQ has become full, causing a stall
system.cpu.iew.iewLSQFullEvents                  1694                       # Number of times the LSQ has become full, causing a stall
system.cpu.iew.memOrderViolationEvents              8                       # Number of memory order violations
system.cpu.iew.predictedTakenIncorrect            175                       # Number of branches that were predicted taken incorrectly
system.cpu.iew.predictedNotTakenIncorrect          976                       # Number of branches that were predicted not taken incorrectly
system.cpu.iew.branchMispredicts                 1151                       # Number of branch mispredicts detected at execute
system.cpu.iew.iewExecutedInsts                 24190                       # Number of executed instructions
system.cpu.iew.iewExecLoadInsts                  2568                       # Number of load instructions executed
system.cpu.iew.iewExecSquashedInsts              2636                       # Number of squashed instructions skipped in execute
system.cpu.iew.exec_swp                             0                       # number of swp insts executed
system.cpu.iew.exec_nop                             0                       # number of nop insts executed
system.cpu.iew.exec_refs                         4550                       # number of memory reference insts executed
system.cpu.iew.exec_branches                     2047                       # Number of branches executed
system.cpu.iew.exec_stores                       1982                       # Number of stores executed
system.cpu.iew.exec_rate                     0.270803                       # Inst execution rate
system.cpu.iew.wb_sent                          23782                       # cumulative count of insts sent to commit
system.cpu.iew.wb_count                         23586                       # cumulative count of insts written-back
system.cpu.iew.wb_producers                     16921                       # num instructions producing a value
system.cpu.iew.wb_consumers                     26890                       # num instructions consuming a value
system.cpu.iew.wb_rate                       0.264041                       # insts written-back per cycle
system.cpu.iew.wb_fanout                     0.629267                       # average fanout of values written-back
system.cpu.commit.commitSquashedInsts           18024                       # The number of squashed insts skipped by commit
system.cpu.commit.commitNonSpecStalls              11                       # The number of times commit has been forced to stall to communicate backwards
system.cpu.commit.branchMispredicts               993                       # The number of times a branch was mispredicted
system.cpu.commit.committed_per_cycle::samples        63358                       # Number of insts commited each cycle
system.cpu.commit.committed_per_cycle::mean     0.246583                       # Number of insts commited each cycle
system.cpu.commit.committed_per_cycle::stdev     0.796204                       # Number of insts commited each cycle
system.cpu.commit.committed_per_cycle::underflows            0      0.00%      0.00% # Number of insts commited each cycle
system.cpu.commit.committed_per_cycle::0        56225     88.74%     88.74% # Number of insts commited each cycle
system.cpu.commit.committed_per_cycle::1         2908      4.59%     93.33% # Number of insts commited each cycle
system.cpu.commit.committed_per_cycle::2         1402      2.21%     95.54% # Number of insts commited each cycle
system.cpu.commit.committed_per_cycle::3         1381      2.18%     97.72% # Number of insts commited each cycle
system.cpu.commit.committed_per_cycle::4         1442      2.28%    100.00% # Number of insts commited each cycle
system.cpu.commit.committed_per_cycle::overflows            0      0.00%    100.00% # Number of insts commited each cycle
system.cpu.commit.committed_per_cycle::min_value            0                       # Number of insts commited each cycle
system.cpu.commit.committed_per_cycle::max_value            4                       # Number of insts commited each cycle
system.cpu.commit.committed_per_cycle::total        63358                       # Number of insts commited each cycle
system.cpu.commit.committedInsts                 7741                       # Number of instructions committed
system.cpu.commit.committedOps                  15623                       # Number of ops (including micro ops) committed
system.cpu.commit.swp_count                         0                       # Number of s/w prefetches committed
system.cpu.commit.refs                           3029                       # Number of memory references committed
system.cpu.commit.loads                          1495                       # Number of loads committed
system.cpu.commit.membars                           0                       # Number of memory barriers committed
system.cpu.commit.branches                       1557                       # Number of branches committed
system.cpu.commit.vec_insts                         0                       # Number of committed Vector instructions.
system.cpu.commit.fp_insts                       2171                       # Number of committed floating point instructions.
system.cpu.commit.int_insts                     13976                       # Number of committed integer instructions.
system.cpu.commit.function_calls                  153                       # Number of function calls committed.
system.cpu.commit.op_class_0::No_OpClass          110      0.70%      0.70% # Class of committed instruction
system.cpu.commit.op_class_0::IntAlu            11338     72.57%     73.28% # Class of committed instruction
system.cpu.commit.op_class_0::IntMult               4      0.03%     73.30% # Class of committed instruction
system.cpu.commit.op_class_0::IntDiv               28      0.18%     73.48% # Class of committed instruction
system.cpu.commit.op_class_0::FloatAdd             12      0.08%     73.56% # Class of committed instruction
system.cpu.commit.op_class_0::FloatCmp              0      0.00%     73.56% # Class of committed instruction
system.cpu.commit.op_class_0::FloatCvt              0      0.00%     73.56% # Class of committed instruction
system.cpu.commit.op_class_0::FloatMult             0      0.00%     73.56% # Class of committed instruction
system.cpu.commit.op_class_0::FloatMultAcc            0      0.00%     73.56% # Class of committed instruction
system.cpu.commit.op_class_0::FloatDiv              0      0.00%     73.56% # Class of committed instruction
system.cpu.commit.op_class_0::FloatMisc             0      0.00%     73.56% # Class of committed instruction
system.cpu.commit.op_class_0::FloatSqrt             0      0.00%     73.56% # Class of committed instruction
system.cpu.commit.op_class_0::SimdAdd             374      2.39%     75.95% # Class of committed instruction
system.cpu.commit.op_class_0::SimdAddAcc            0      0.00%     75.95% # Class of committed instruction
system.cpu.commit.op_class_0::SimdAlu              98      0.63%     76.58% # Class of committed instruction
system.cpu.commit.op_class_0::SimdCmp               6      0.04%     76.62% # Class of committed instruction
system.cpu.commit.op_class_0::SimdCvt             164      1.05%     77.67% # Class of committed instruction
system.cpu.commit.op_class_0::SimdMisc            274      1.75%     79.42% # Class of committed instruction
system.cpu.commit.op_class_0::SimdMult              0      0.00%     79.42% # Class of committed instruction
system.cpu.commit.op_class_0::SimdMultAcc            0      0.00%     79.42% # Class of committed instruction
system.cpu.commit.op_class_0::SimdShift           186      1.19%     80.61% # Class of committed instruction
system.cpu.commit.op_class_0::SimdShiftAcc            0      0.00%     80.61% # Class of committed instruction
system.cpu.commit.op_class_0::SimdSqrt              0      0.00%     80.61% # Class of committed instruction
system.cpu.commit.op_class_0::SimdFloatAdd            0      0.00%     80.61% # Class of committed instruction
system.cpu.commit.op_class_0::SimdFloatAlu            0      0.00%     80.61% # Class of committed instruction
system.cpu.commit.op_class_0::SimdFloatCmp            0      0.00%     80.61% # Class of committed instruction
system.cpu.commit.op_class_0::SimdFloatCvt            0      0.00%     80.61% # Class of committed instruction
system.cpu.commit.op_class_0::SimdFloatDiv            0      0.00%     80.61% # Class of committed instruction
system.cpu.commit.op_class_0::SimdFloatMisc            0      0.00%     80.61% # Class of committed instruction
system.cpu.commit.op_class_0::SimdFloatMult            0      0.00%     80.61% # Class of committed instruction
system.cpu.commit.op_class_0::SimdFloatMultAcc            0      0.00%     80.61% # Class of committed instruction
system.cpu.commit.op_class_0::SimdFloatSqrt            0      0.00%     80.61% # Class of committed instruction
system.cpu.commit.op_class_0::SimdAes               0      0.00%     80.61% # Class of committed instruction
system.cpu.commit.op_class_0::SimdAesMix            0      0.00%     80.61% # Class of committed instruction
system.cpu.commit.op_class_0::SimdSha1Hash            0      0.00%     80.61% # Class of committed instruction
system.cpu.commit.op_class_0::SimdSha1Hash2            0      0.00%     80.61% # Class of committed instruction
system.cpu.commit.op_class_0::SimdSha256Hash            0      0.00%     80.61% # Class of committed instruction
system.cpu.commit.op_class_0::SimdSha256Hash2            0      0.00%     80.61% # Class of committed instruction
system.cpu.commit.op_class_0::SimdShaSigma2            0      0.00%     80.61% # Class of committed instruction
system.cpu.commit.op_class_0::SimdShaSigma3            0      0.00%     80.61% # Class of committed instruction
system.cpu.commit.op_class_0::MemRead            1381      8.84%     89.45% # Class of committed instruction
system.cpu.commit.op_class_0::MemWrite           1113      7.12%     96.58% # Class of committed instruction
system.cpu.commit.op_class_0::FloatMemRead          114      0.73%     97.31% # Class of committed instruction
system.cpu.commit.op_class_0::FloatMemWrite          421      2.69%    100.00% # Class of committed instruction
system.cpu.commit.op_class_0::IprAccess             0      0.00%    100.00% # Class of committed instruction
system.cpu.commit.op_class_0::InstPrefetch            0      0.00%    100.00% # Class of committed instruction
system.cpu.commit.op_class_0::total             15623                       # Class of committed instruction
system.cpu.commit.bw_lim_events                  1442                       # number cycles where commit BW limit reached
system.cpu.rob.rob_reads                        95563                       # The number of ROB reads
system.cpu.rob.rob_writes                       68497                       # The number of ROB writes
system.cpu.timesIdled                             297                       # Number of times that the entire CPU went into an idle state and unscheduled itself
system.cpu.idleCycles                           24766                       # Total number of cycles that the CPU has spent unscheduled due to idling
system.cpu.committedInsts                        7741                       # Number of Instructions Simulated
system.cpu.committedOps                         15623                       # Number of Ops (including micro ops) Simulated
system.cpu.cpi                              11.539465                       # CPI: Cycles Per Instruction
system.cpu.cpi_total                        11.539465                       # CPI: Total CPI of All Threads
system.cpu.ipc                               0.086659                       # IPC: Instructions Per Cycle
system.cpu.ipc_total                         0.086659                       # IPC: Total IPC of All Threads
system.cpu.int_regfile_reads                    29879                       # number of integer regfile reads
system.cpu.int_regfile_writes                   17640                       # number of integer regfile writes
system.cpu.fp_regfile_reads                      4144                       # number of floating regfile reads
system.cpu.fp_regfile_writes                     1676                       # number of floating regfile writes
system.cpu.cc_regfile_reads                      9765                       # number of cc regfile reads
system.cpu.cc_regfile_writes                     5958                       # number of cc regfile writes
system.cpu.misc_regfile_reads                   10294                       # number of misc regfile reads
system.cpu.dcache.tags.pwrStateResidencyTicks::UNDEFINED     44663000                       # Cumulative time (in ticks) in various power states
system.cpu.dcache.tags.tagsinuse           149.096369                       # Cycle average of tags in use
system.cpu.dcache.tags.total_refs                3826                       # Total number of references to valid blocks.
system.cpu.dcache.tags.sampled_refs               261                       # Sample count of references to valid blocks.
system.cpu.dcache.tags.avg_refs             14.659004                       # Average number of references to valid blocks.
system.cpu.dcache.tags.warmup_cycle            169500                       # Cycle when the warmup percentage was hit.
system.cpu.dcache.tags.occ_blocks::.cpu.data   149.096369                       # Average occupied blocks per requestor
system.cpu.dcache.tags.occ_percent::.cpu.data     0.291204                       # Average percentage of cache occupancy
system.cpu.dcache.tags.occ_percent::total     0.291204                       # Average percentage of cache occupancy
system.cpu.dcache.tags.occ_task_id_blocks::1024          261                       # Occupied blocks per task id
system.cpu.dcache.tags.age_task_id_blocks_1024::0           41                       # Occupied blocks per task id
system.cpu.dcache.tags.age_task_id_blocks_1024::1          220                       # Occupied blocks per task id
system.cpu.dcache.tags.occ_task_id_percent::1024     0.509766                       # Percentage of cache occupancy per task id
system.cpu.dcache.tags.tag_accesses             31813                       # Number of tag accesses
system.cpu.dcache.tags.data_accesses            31813                       # Number of data accesses
system.cpu.dcache.pwrStateResidencyTicks::UNDEFINED     44663000                       # Cumulative time (in ticks) in various power states
system.cpu.dcache.ReadReq_hits::.cpu.data         2160                       # number of ReadReq hits
system.cpu.dcache.ReadReq_hits::total            2160                       # number of ReadReq hits
system.cpu.dcache.WriteReq_hits::.cpu.data         1405                       # number of WriteReq hits
system.cpu.dcache.WriteReq_hits::total           1405                       # number of WriteReq hits
system.cpu.dcache.demand_hits::.cpu.data         3565                       # number of demand (read+write) hits
system.cpu.dcache.demand_hits::total             3565                       # number of demand (read+write) hits
system.cpu.dcache.overall_hits::.cpu.data         3565                       # number of overall hits
system.cpu.dcache.overall_hits::total            3565                       # number of overall hits
system.cpu.dcache.ReadReq_misses::.cpu.data          250                       # number of ReadReq misses
system.cpu.dcache.ReadReq_misses::total           250                       # number of ReadReq misses
system.cpu.dcache.WriteReq_misses::.cpu.data          129                       # number of WriteReq misses
system.cpu.dcache.WriteReq_misses::total          129                       # number of WriteReq misses
system.cpu.dcache.demand_misses::.cpu.data          379                       # number of demand (read+write) misses
system.cpu.dcache.demand_misses::total            379                       # number of demand (read+write) misses
system.cpu.dcache.overall_misses::.cpu.data          379                       # number of overall misses
system.cpu.dcache.overall_misses::total           379                       # number of overall misses
system.cpu.dcache.ReadReq_miss_latency::.cpu.data     21117000                       # number of ReadReq miss cycles
system.cpu.dcache.ReadReq_miss_latency::total     21117000                       # number of ReadReq miss cycles
system.cpu.dcache.WriteReq_miss_latency::.cpu.data     10608000                       # number of WriteReq miss cycles
system.cpu.dcache.WriteReq_miss_latency::total     10608000                       # number of WriteReq miss cycles
system.cpu.dcache.demand_miss_latency::.cpu.data     31725000                       # number of demand (read+write) miss cycles
system.cpu.dcache.demand_miss_latency::total     31725000                       # number of demand (read+write) miss cycles
system.cpu.dcache.overall_miss_latency::.cpu.data     31725000                       # number of overall miss cycles
system.cpu.dcache.overall_miss_latency::total     31725000                       # number of overall miss cycles
system.cpu.dcache.ReadReq_accesses::.cpu.data         2410                       # number of ReadReq accesses(hits+misses)
system.cpu.dcache.ReadReq_accesses::total         2410                       # number of ReadReq accesses(hits+misses)
system.cpu.dcache.WriteReq_accesses::.cpu.data         1534                       # number of WriteReq accesses(hits+misses)
system.cpu.dcache.WriteReq_accesses::total         1534                       # number of WriteReq accesses(hits+misses)
system.cpu.dcache.demand_accesses::.cpu.data         3944                       # number of demand (read+write) accesses
system.cpu.dcache.demand_accesses::total         3944                       # number of demand (read+write) accesses
system.cpu.dcache.overall_accesses::.cpu.data         3944                       # number of overall (read+write) accesses
system.cpu.dcache.overall_accesses::total         3944                       # number of overall (read+write) accesses
system.cpu.dcache.ReadReq_miss_rate::.cpu.data     0.103734                       # miss rate for ReadReq accesses
system.cpu.dcache.ReadReq_miss_rate::total     0.103734                       # miss rate for ReadReq accesses
system.cpu.dcache.WriteReq_miss_rate::.cpu.data     0.084094                       # miss rate for WriteReq accesses
system.cpu.dcache.WriteReq_miss_rate::total     0.084094                       # miss rate for WriteReq accesses
system.cpu.dcache.demand_miss_rate::.cpu.data     0.096095                       # miss rate for demand accesses
system.cpu.dcache.demand_miss_rate::total     0.096095                       # miss rate for demand accesses
system.cpu.dcache.overall_miss_rate::.cpu.data     0.096095                       # miss rate for overall accesses
system.cpu.dcache.overall_miss_rate::total     0.096095                       # miss rate for overall accesses
system.cpu.dcache.ReadReq_avg_miss_latency::.cpu.data        84468                       # average ReadReq miss latency
[...]
system.l3bus.snoop_fanout::1                        0      0.00%    100.00% # Request fanout histogram
system.l3bus.snoop_fanout::overflows                0      0.00%    100.00% # Request fanout histogram
system.l3bus.snoop_fanout::min_value                0                       # Request fanout histogram
system.l3bus.snoop_fanout::max_value                0                       # Request fanout histogram
system.l3bus.snoop_fanout::total                  811                       # Request fanout histogram
system.l3bus.reqLayer0.occupancy               405500                       # Layer occupancy (ticks)
system.l3bus.reqLayer0.utilization                0.9                       # Layer utilization (%)
system.l3bus.respLayer0.occupancy             2027500                       # Layer occupancy (ticks)
system.l3bus.respLayer0.utilization               4.5                       # Layer utilization (%)
system.l3cache.tags.pwrStateResidencyTicks::UNDEFINED     44663000                       # Cumulative time (in ticks) in various power states
system.l3cache.tags.tagsinuse              409.642465                       # Cycle average of tags in use
system.l3cache.tags.total_refs                    811                       # Total number of references to valid blocks.
system.l3cache.tags.sampled_refs                  811                       # Sample count of references to valid blocks.
system.l3cache.tags.avg_refs                        1                       # Average number of references to valid blocks.
system.l3cache.tags.warmup_cycle                76000                       # Cycle when the warmup percentage was hit.
system.l3cache.tags.occ_blocks::.cpu.inst   261.903472                       # Average occupied blocks per requestor
system.l3cache.tags.occ_blocks::.cpu.data   147.738992                       # Average occupied blocks per requestor
system.l3cache.tags.occ_percent::.cpu.inst     0.007993                       # Average percentage of cache occupancy
system.l3cache.tags.occ_percent::.cpu.data     0.004509                       # Average percentage of cache occupancy
system.l3cache.tags.occ_percent::total       0.012501                       # Average percentage of cache occupancy
system.l3cache.tags.occ_task_id_blocks::1024          811                       # Occupied blocks per task id
system.l3cache.tags.age_task_id_blocks_1024::0          183                       # Occupied blocks per task id
system.l3cache.tags.age_task_id_blocks_1024::1          628                       # Occupied blocks per task id
system.l3cache.tags.occ_task_id_percent::1024     0.024750                       # Percentage of cache occupancy per task id
system.l3cache.tags.tag_accesses                13787                       # Number of tag accesses
system.l3cache.tags.data_accesses               13787                       # Number of data accesses
system.l3cache.pwrStateResidencyTicks::UNDEFINED     44663000                       # Cumulative time (in ticks) in various power states
system.l3cache.ReadExReq_misses::.cpu.data          126                       # number of ReadExReq misses
system.l3cache.ReadExReq_misses::total            126                       # number of ReadExReq misses
system.l3cache.ReadSharedReq_misses::.cpu.inst          553                       # number of ReadSharedReq misses
system.l3cache.ReadSharedReq_misses::.cpu.data          132                       # number of ReadSharedReq misses
system.l3cache.ReadSharedReq_misses::total          685                       # number of ReadSharedReq misses
system.l3cache.demand_misses::.cpu.inst           553                       # number of demand (read+write) misses
system.l3cache.demand_misses::.cpu.data           258                       # number of demand (read+write) misses
system.l3cache.demand_misses::total               811                       # number of demand (read+write) misses
system.l3cache.overall_misses::.cpu.inst          553                       # number of overall misses
system.l3cache.overall_misses::.cpu.data          258                       # number of overall misses
system.l3cache.overall_misses::total              811                       # number of overall misses
system.l3cache.ReadExReq_miss_latency::.cpu.data      8678500                       # number of ReadExReq miss cycles
system.l3cache.ReadExReq_miss_latency::total      8678500                       # number of ReadExReq miss cycles
system.l3cache.ReadSharedReq_miss_latency::.cpu.inst     39079500                       # number of ReadSharedReq miss cycles
system.l3cache.ReadSharedReq_miss_latency::.cpu.data     10017500                       # number of ReadSharedReq miss cycles
system.l3cache.ReadSharedReq_miss_latency::total     49097000                       # number of ReadSharedReq miss cycles
system.l3cache.demand_miss_latency::.cpu.inst     39079500                       # number of demand (read+write) miss cycles
system.l3cache.demand_miss_latency::.cpu.data     18696000                       # number of demand (read+write) miss cycles
system.l3cache.demand_miss_latency::total     57775500                       # number of demand (read+write) miss cycles
system.l3cache.overall_miss_latency::.cpu.inst     39079500                       # number of overall miss cycles
system.l3cache.overall_miss_latency::.cpu.data     18696000                       # number of overall miss cycles
system.l3cache.overall_miss_latency::total     57775500                       # number of overall miss cycles
system.l3cache.ReadExReq_accesses::.cpu.data          126                       # number of ReadExReq accesses(hits+misses)
system.l3cache.ReadExReq_accesses::total          126                       # number of ReadExReq accesses(hits+misses)
system.l3cache.ReadSharedReq_accesses::.cpu.inst          553                       # number of ReadSharedReq accesses(hits+misses)
system.l3cache.ReadSharedReq_accesses::.cpu.data          132                       # number of ReadSharedReq accesses(hits+misses)
system.l3cache.ReadSharedReq_accesses::total          685                       # number of ReadSharedReq accesses(hits+misses)
system.l3cache.demand_accesses::.cpu.inst          553                       # number of demand (read+write) accesses
system.l3cache.demand_accesses::.cpu.data          258                       # number of demand (read+write) accesses
system.l3cache.demand_accesses::total             811                       # number of demand (read+write) accesses
system.l3cache.overall_accesses::.cpu.inst          553                       # number of overall (read+write) accesses
system.l3cache.overall_accesses::.cpu.data          258                       # number of overall (read+write) accesses
system.l3cache.overall_accesses::total            811                       # number of overall (read+write) accesses
system.l3cache.ReadExReq_miss_rate::.cpu.data            1                       # miss rate for ReadExReq accesses
system.l3cache.ReadExReq_miss_rate::total            1                       # miss rate for ReadExReq accesses
system.l3cache.ReadSharedReq_miss_rate::.cpu.inst            1                       # miss rate for ReadSharedReq accesses
system.l3cache.ReadSharedReq_miss_rate::.cpu.data            1                       # miss rate for ReadSharedReq accesses
system.l3cache.ReadSharedReq_miss_rate::total            1                       # miss rate for ReadSharedReq accesses
system.l3cache.demand_miss_rate::.cpu.inst            1                       # miss rate for demand accesses
system.l3cache.demand_miss_rate::.cpu.data            1                       # miss rate for demand accesses
system.l3cache.demand_miss_rate::total              1                       # miss rate for demand accesses
system.l3cache.overall_miss_rate::.cpu.inst            1                       # miss rate for overall accesses
system.l3cache.overall_miss_rate::.cpu.data            1                       # miss rate for overall accesses
system.l3cache.overall_miss_rate::total             1                       # miss rate for overall accesses
system.l3cache.ReadExReq_avg_miss_latency::.cpu.data 68876.984127                       # average ReadExReq miss latency
system.l3cache.ReadExReq_avg_miss_latency::total 68876.984127                       # average ReadExReq miss latency
system.l3cache.ReadSharedReq_avg_miss_latency::.cpu.inst 70668.173599                       # average ReadSharedReq miss latency
system.l3cache.ReadSharedReq_avg_miss_latency::.cpu.data 75890.151515                       # average ReadSharedReq miss latency
system.l3cache.ReadSharedReq_avg_miss_latency::total 71674.452555                       # average ReadSharedReq miss latency
system.l3cache.demand_avg_miss_latency::.cpu.inst 70668.173599                       # average overall miss latency
system.l3cache.demand_avg_miss_latency::.cpu.data 72465.116279                       # average overall miss latency
system.l3cache.demand_avg_miss_latency::total 71239.827374                       # average overall miss latency
system.l3cache.overall_avg_miss_latency::.cpu.inst 70668.173599                       # average overall miss latency
system.l3cache.overall_avg_miss_latency::.cpu.data 72465.116279                       # average overall miss latency
system.l3cache.overall_avg_miss_latency::total 71239.827374                       # average overall miss latency
system.l3cache.blocked_cycles::no_mshrs             0                       # number of cycles access was blocked
system.l3cache.blocked_cycles::no_targets            0                       # number of cycles access was blocked
system.l3cache.blocked::no_mshrs                    0                       # number of cycles access was blocked
system.l3cache.blocked::no_targets                  0                       # number of cycles access was blocked
system.l3cache.avg_blocked_cycles::no_mshrs          nan                       # average number of cycles each access was blocked
system.l3cache.avg_blocked_cycles::no_targets          nan                       # average number of cycles each access was blocked
system.l3cache.ReadExReq_mshr_misses::.cpu.data          126                       # number of ReadExReq MSHR misses
system.l3cache.ReadExReq_mshr_misses::total          126                       # number of ReadExReq MSHR misses
system.l3cache.ReadSharedReq_mshr_misses::.cpu.inst          553                       # number of ReadSharedReq MSHR misses
system.l3cache.ReadSharedReq_mshr_misses::.cpu.data          132                       # number of ReadSharedReq MSHR misses
system.l3cache.ReadSharedReq_mshr_misses::total          685                       # number of ReadSharedReq MSHR misses
system.l3cache.demand_mshr_misses::.cpu.inst          553                       # number of demand (read+write) MSHR misses
system.l3cache.demand_mshr_misses::.cpu.data          258                       # number of demand (read+write) MSHR misses
system.l3cache.demand_mshr_misses::total          811                       # number of demand (read+write) MSHR misses
system.l3cache.overall_mshr_misses::.cpu.inst          553                       # number of overall MSHR misses
system.l3cache.overall_mshr_misses::.cpu.data          258                       # number of overall MSHR misses
system.l3cache.overall_mshr_misses::total          811                       # number of overall MSHR misses
system.l3cache.ReadExReq_mshr_miss_latency::.cpu.data      8426500                       # number of ReadExReq MSHR miss cycles
system.l3cache.ReadExReq_mshr_miss_latency::total      8426500                       # number of ReadExReq MSHR miss cycles
system.l3cache.ReadSharedReq_mshr_miss_latency::.cpu.inst     37973500                       # number of ReadSharedReq MSHR miss cycles
system.l3cache.ReadSharedReq_mshr_miss_latency::.cpu.data      9753500                       # number of ReadSharedReq MSHR miss cycles
system.l3cache.ReadSharedReq_mshr_miss_latency::total     47727000                       # number of ReadSharedReq MSHR miss cycles
system.l3cache.demand_mshr_miss_latency::.cpu.inst     37973500                       # number of demand (read+write) MSHR miss cycles
system.l3cache.demand_mshr_miss_latency::.cpu.data     18180000                       # number of demand (read+write) MSHR miss cycles
system.l3cache.demand_mshr_miss_latency::total     56153500                       # number of demand (read+write) MSHR miss cycles
system.l3cache.overall_mshr_miss_latency::.cpu.inst     37973500                       # number of overall MSHR miss cycles
system.l3cache.overall_mshr_miss_latency::.cpu.data     18180000                       # number of overall MSHR miss cycles
system.l3cache.overall_mshr_miss_latency::total     56153500                       # number of overall MSHR miss cycles
system.l3cache.ReadExReq_mshr_miss_rate::.cpu.data            1                       # mshr miss rate for ReadExReq accesses
system.l3cache.ReadExReq_mshr_miss_rate::total            1                       # mshr miss rate for ReadExReq accesses
system.l3cache.ReadSharedReq_mshr_miss_rate::.cpu.inst            1                       # mshr miss rate for ReadSharedReq accesses
system.l3cache.ReadSharedReq_mshr_miss_rate::.cpu.data            1                       # mshr miss rate for ReadSharedReq accesses
system.l3cache.ReadSharedReq_mshr_miss_rate::total            1                       # mshr miss rate for ReadSharedReq accesses
system.l3cache.demand_mshr_miss_rate::.cpu.inst            1                       # mshr miss rate for demand accesses
system.l3cache.demand_mshr_miss_rate::.cpu.data            1                       # mshr miss rate for demand accesses
system.l3cache.demand_mshr_miss_rate::total            1                       # mshr miss rate for demand accesses
system.l3cache.overall_mshr_miss_rate::.cpu.inst            1                       # mshr miss rate for overall accesses
system.l3cache.overall_mshr_miss_rate::.cpu.data            1                       # mshr miss rate for overall accesses
system.l3cache.overall_mshr_miss_rate::total            1                       # mshr miss rate for overall accesses
system.l3cache.ReadExReq_avg_mshr_miss_latency::.cpu.data 66876.984127                       # average ReadExReq mshr miss latency
system.l3cache.ReadExReq_avg_mshr_miss_latency::total 66876.984127                       # average ReadExReq mshr miss latency
system.l3cache.ReadSharedReq_avg_mshr_miss_latency::.cpu.inst 68668.173599                       # average ReadSharedReq mshr miss latency
system.l3cache.ReadSharedReq_avg_mshr_miss_latency::.cpu.data 73890.151515                       # average ReadSharedReq mshr miss latency
system.l3cache.ReadSharedReq_avg_mshr_miss_latency::total 69674.452555                       # average ReadSharedReq mshr miss latency
system.l3cache.demand_avg_mshr_miss_latency::.cpu.inst 68668.173599                       # average overall mshr miss latency
system.l3cache.demand_avg_mshr_miss_latency::.cpu.data 70465.116279                       # average overall mshr miss latency
system.l3cache.demand_avg_mshr_miss_latency::total 69239.827374                       # average overall mshr miss latency
system.l3cache.overall_avg_mshr_miss_latency::.cpu.inst 68668.173599                       # average overall mshr miss latency
system.l3cache.overall_avg_mshr_miss_latency::.cpu.data 70465.116279                       # average overall mshr miss latency
system.l3cache.overall_avg_mshr_miss_latency::total 69239.827374                       # average overall mshr miss latency
system.l3cache.replacements                         0                       # number of replacements
system.membus.snoop_filter.tot_requests           811                       # Total number of requests made to the snoop filter.
system.membus.snoop_filter.hit_single_requests            0                       # Number of requests hitting in the snoop filter with a single holder of the requested data.
system.membus.snoop_filter.hit_multi_requests            0                       # Number of requests hitting in the snoop filter with multiple (>1) holders of the requested data.
system.membus.snoop_filter.tot_snoops               0                       # Total number of snoops made to the snoop filter.
system.membus.snoop_filter.hit_single_snoops            0                       # Number of snoops hitting in the snoop filter with a single holder of the requested data.
system.membus.snoop_filter.hit_multi_snoops            0                       # Number of snoops hitting in the snoop filter with multiple (>1) holders of the requested data.
system.membus.pwrStateResidencyTicks::UNDEFINED     44663000                       # Cumulative time (in ticks) in various power states
system.membus.trans_dist::ReadResp                685                       # Transaction distribution
system.membus.trans_dist::ReadExReq               126                       # Transaction distribution
system.membus.trans_dist::ReadExResp              126                       # Transaction distribution
system.membus.trans_dist::ReadSharedReq           685                       # Transaction distribution
system.membus.pkt_count_system.l3cache.mem_side::system.mem_ctrl.port         1622                       # Packet count per connected master and slave (bytes)
system.membus.pkt_count_system.l3cache.mem_side::total         1622                       # Packet count per connected master and slave (bytes)
system.membus.pkt_count::total                   1622                       # Packet count per connected master and slave (bytes)
system.membus.pkt_size_system.l3cache.mem_side::system.mem_ctrl.port        51904                       # Cumulative packet size per connected master and slave (bytes)
system.membus.pkt_size_system.l3cache.mem_side::total        51904                       # Cumulative packet size per connected master and slave (bytes)
system.membus.pkt_size::total                   51904                       # Cumulative packet size per connected master and slave (bytes)
system.membus.snoops                                0                       # Total snoops (count)
system.membus.snoopTraffic                          0                       # Total snoop traffic (bytes)
system.membus.snoop_fanout::samples               811                       # Request fanout histogram
system.membus.snoop_fanout::mean                    0                       # Request fanout histogram
system.membus.snoop_fanout::stdev                   0                       # Request fanout histogram
system.membus.snoop_fanout::underflows              0      0.00%      0.00% # Request fanout histogram
system.membus.snoop_fanout::0                     811    100.00%    100.00% # Request fanout histogram
system.membus.snoop_fanout::1                       0      0.00%    100.00% # Request fanout histogram
system.membus.snoop_fanout::overflows               0      0.00%    100.00% # Request fanout histogram
system.membus.snoop_fanout::min_value               0                       # Request fanout histogram
system.membus.snoop_fanout::max_value               0                       # Request fanout histogram
system.membus.snoop_fanout::total                 811                       # Request fanout histogram
system.membus.reqLayer0.occupancy              405500                       # Layer occupancy (ticks)
system.membus.reqLayer0.utilization               0.9                       # Layer utilization (%)
system.membus.respLayer0.occupancy            2202750                       # Layer occupancy (ticks)
system.membus.respLayer0.utilization              4.9                       # Layer utilization (%)

---------- End Simulation Statistics   ----------