
---------- Begin Simulation Statistics ----------
sim_seconds                                  0.071831                       # Number of seconds simulated
sim_ticks                                 71830861500                       # Number of ticks simulated
final_tick                                71830861500                       # Number of ticks from beginning of simulation (restored from checkpoints and never reset)
sim_freq                                 1000000000000                       # Frequency of simulated ticks
host_inst_rate                                 256929                       # Simulator instruction rate (inst/s)
host_op_rate                                   477193                       # Simulator op (including micro ops) rate (op/s)
host_tick_rate                              216812526                       # Simulator tick rate (ticks/s)
host_mem_usage                                 662044                       # Number of bytes of host memory used
host_seconds                                   331.30                       # Real time elapsed on the host
sim_insts                                    85121742                       # Number of instructions simulated
sim_ops                                     158095973                       # Number of ops (including micro ops) simulated
system.clk_domain.voltage_domain.voltage            1                       # Voltage in Volts
system.clk_domain.clock                           500                       # Clock period in ticks
system.mem_ctrl.pwrStateResidencyTicks::UNDEFINED  71830861500                       # Cumulative time (in ticks) in various power states
system.mem_ctrl.bytes_read::.cpu.inst           52544                       # Number of bytes read from this memory
system.mem_ctrl.bytes_read::.cpu.data         1706880                       # Number of bytes read from this memory
system.mem_ctrl.bytes_read::total             1759424                       # Number of bytes read from this memory
system.mem_ctrl.bytes_inst_read::.cpu.inst        52544                       # Number of instructions bytes read from this memory
system.mem_ctrl.bytes_inst_read::total          52544                       # Number of instructions bytes read from this memory
system.mem_ctrl.num_reads::.cpu.inst              821                       # Number of read requests responded to by this memory
system.mem_ctrl.num_reads::.cpu.data            26670                       # Number of read requests responded to by this memory
system.mem_ctrl.num_reads::total                27491                       # Number of read requests responded to by this memory
system.mem_ctrl.bw_read::.cpu.inst             731496                       # Total read bandwidth from this memory (bytes/s)
system.mem_ctrl.bw_read::.cpu.data           23762488                       # Total read bandwidth from this memory (bytes/s)
system.mem_ctrl.bw_read::total               24493984                       # Total read bandwidth from this memory (bytes/s)
system.mem_ctrl.bw_inst_read::.cpu.inst        731496                       # Instruction read bandwidth from this memory (bytes/s)
system.mem_ctrl.bw_inst_read::total            731496                       # Instruction read bandwidth from this memory (bytes/s)
system.mem_ctrl.bw_total::.cpu.inst            731496                       # Total bandwidth to/from this memory (bytes/s)
system.mem_ctrl.bw_total::.cpu.data          23762488                       # Total bandwidth to/from this memory (bytes/s)
system.mem_ctrl.bw_total::total              24493984                       # Total bandwidth to/from this memory (bytes/s)
system.mem_ctrl.avgPriority_.cpu.inst::samples       821.00                       # Average QoS priority value for accepted requests
system.mem_ctrl.avgPriority_.cpu.data::samples     26670.00                       # Average QoS priority value for accepted requests
system.mem_ctrl.priorityMinLatency       0.000000018750                       # per QoS priority minimum request to response latency (s)
system.mem_ctrl.priorityMaxLatency       0.000001099750                       # per QoS priority maximum request to response latency (s)
system.mem_ctrl.numReadWriteTurnArounds             0                       # Number of turnarounds from READ to WRITE
system.mem_ctrl.numWriteReadTurnArounds             0                       # Number of turnarounds from WRITE to READ
system.mem_ctrl.numStayReadState                63371                       # Number of times bus staying in READ state
system.mem_ctrl.numStayWriteState                   0                       # Number of times bus staying in WRITE state
system.mem_ctrl.readReqs                        27491                       # Number of read requests accepted
system.mem_ctrl.writeReqs                           0                       # Number of write requests accepted
system.mem_ctrl.readBursts                      27491                       # Number of DRAM read bursts, including those serviced by the write queue
system.mem_ctrl.writeBursts                         0                       # Number of DRAM write bursts, including those merged in the write queue
system.mem_ctrl.bytesReadDRAM                 1759424                       # Total number of bytes read from DRAM
system.mem_ctrl.bytesReadWrQ                        0                       # Total number of bytes read from write queue
system.mem_ctrl.bytesWritten                        0                       # Total number of bytes written to DRAM
system.mem_ctrl.bytesReadSys                  1759424                       # Total read bytes from the system interface side
system.mem_ctrl.bytesWrittenSys                     0                       # Total written bytes from the system interface side
system.mem_ctrl.servicedByWrQ                       0                       # Number of DRAM read bursts serviced by the write queue
system.mem_ctrl.mergedWrBursts                      0                       # Number of DRAM write bursts merged with an existing one
system.mem_ctrl.neitherReadNorWriteReqs             0                       # Number of requests that are neither read nor write
system.mem_ctrl.perBankRdBursts::0               1868                       # Per bank write bursts
system.mem_ctrl.perBankRdBursts::1               1676                       # Per bank write bursts
system.mem_ctrl.perBankRdBursts::2               1656                       # Per bank write bursts
system.mem_ctrl.perBankRdBursts::3               1679                       # Per bank write bursts
system.mem_ctrl.perBankRdBursts::4               1691                       # Per bank write bursts
system.mem_ctrl.perBankRdBursts::5               1677                       # Per bank write bursts
system.mem_ctrl.perBankRdBursts::6               1738                       # Per bank write bursts
system.mem_ctrl.perBankRdBursts::7               1766                       # Per bank write bursts
system.mem_ctrl.perBankRdBursts::8               1695                       # Per bank write bursts
system.mem_ctrl.perBankRdBursts::9               1590                       # Per bank write bursts
system.mem_ctrl.perBankRdBursts::10              1682                       # Per bank write bursts
system.mem_ctrl.perBankRdBursts::11              1655                       # Per bank write bursts
system.mem_ctrl.perBankRdBursts::12              1669                       # Per bank write bursts
system.mem_ctrl.perBankRdBursts::13              1817                       # Per bank write bursts
system.mem_ctrl.perBankRdBursts::14              1860                       # Per bank write bursts
system.mem_ctrl.perBankRdBursts::15              1772                       # Per bank write bursts
system.mem_ctrl.perBankWrBursts::0                  0                       # Per bank write bursts
system.mem_ctrl.perBankWrBursts::1                  0                       # Per bank write bursts
system.mem_ctrl.perBankWrBursts::2                  0                       # Per bank write bursts
system.mem_ctrl.perBankWrBursts::3                  0                       # Per bank write bursts
system.mem_ctrl.perBankWrBursts::4                  0                       # Per bank write bursts
system.mem_ctrl.perBankWrBursts::5                  0                       # Per bank write bursts
system.mem_ctrl.perBankWrBursts::6                  0                       # Per bank write bursts
system.mem_ctrl.perBankWrBursts::7                  0                       # Per bank write bursts
system.mem_ctrl.perBankWrBursts::8                  0                       # Per bank write bursts
system.mem_ctrl.perBankWrBursts::9                  0                       # Per bank write bursts
system.mem_ctrl.perBankWrBursts::10                 0                       # Per bank write bursts
system.mem_ctrl.perBankWrBursts::11                 0                       # Per bank write bursts
system.mem_ctrl.perBankWrBursts::12                 0                       # Per bank write bursts
system.mem_ctrl.perBankWrBursts::13                 0                       # Per bank write bursts
system.mem_ctrl.perBankWrBursts::14                 0                       # Per bank write bursts
system.mem_ctrl.perBankWrBursts::15                 0                       # Per bank write bursts
system.mem_ctrl.numRdRetry                          0                       # Number of times read queue was full causing retry
system.mem_ctrl.numWrRetry                          0                       # Number of times write queue was full causing retry
system.mem_ctrl.totGap                    71830777500                       # Total gap between requests
system.mem_ctrl.readPktSize::0                      0                       # Read request sizes (log2)
system.mem_ctrl.readPktSize::1                      0                       # Read request sizes (log2)
system.mem_ctrl.readPktSize::2                      0                       # Read request sizes (log2)
system.mem_ctrl.readPktSize::3                      0                       # Read request sizes (log2)
system.mem_ctrl.readPktSize::4                      0                       # Read request sizes (log2)
system.mem_ctrl.readPktSize::5                      0                       # Read request sizes (log2)
system.mem_ctrl.readPktSize::6                  27491                       # Read request sizes (log2)
system.mem_ctrl.writePktSize::0                     0                       # Write request sizes (log2)
system.mem_ctrl.writePktSize::1                     0                       # Write request sizes (log2)
system.mem_ctrl.writePktSize::2                     0                       # Write request sizes (log2)
system.mem_ctrl.writePktSize::3                     0                       # Write request sizes (log2)
system.mem_ctrl.writePktSize::4                     0                       # Write request sizes (log2)
system.mem_ctrl.writePktSize::5                     0                       # Write request sizes (log2)
system.mem_ctrl.writePktSize::6                     0                       # Write request sizes (log2)
system.mem_ctrl.rdQLenPdf::0                    27097                       # What read queue length does an incoming req see
system.mem_ctrl.rdQLenPdf::1                      311                       # What read queue length does an incoming req see
system.mem_ctrl.rdQLenPdf::2                       73                       # What read queue length does an incoming req see
system.mem_ctrl.rdQLenPdf::3                        7                       # What read queue length does an incoming req see
system.mem_ctrl.rdQLenPdf::4                        2                       # What read queue length does an incoming req see
system.mem_ctrl.rdQLenPdf::5                        1                       # What read queue length does an incoming req see
system.mem_ctrl.rdQLenPdf::6                        0                       # What read queue length does an incoming req see
system.mem_ctrl.rdQLenPdf::7                        0                       # What read queue length does an incoming req see
system.mem_ctrl.rdQLenPdf::8                        0                       # What read queue length does an incoming req see
system.mem_ctrl.rdQLenPdf::9                        0                       # What read queue length does an incoming req see
system.mem_ctrl.rdQLenPdf::10                       0                       # What read queue length does an incoming req see
system.mem_ctrl.rdQLenPdf::11                       0                       # What read queue length does an incoming req see
system.mem_ctrl.rdQLenPdf::12                       0                       # What read queue length does an incoming req see
system.mem_ctrl.rdQLenPdf::13                       0                       # What read queue length does an incoming req see
system.mem_ctrl.rdQLenPdf::14                       0                       # What read queue length does an incoming req see
system.mem_ctrl.rdQLenPdf::15                       0                       # What read queue length does an incoming req see
system.mem_ctrl.rdQLenPdf::16                       0                       # What read queue length does an incoming req see
system.mem_ctrl.rdQLenPdf::17                       0                       # What read queue length does an incoming req see
system.mem_ctrl.rdQLenPdf::18                       0                       # What read queue length does an incoming req see
system.mem_ctrl.rdQLenPdf::19                       0                       # What read queue length does an incoming req see
system.mem_ctrl.rdQLenPdf::20                       0                       # What read queue length does an incoming req see
system.mem_ctrl.rdQLenPdf::21                       0                       # What read queue length does an incoming req see
system.mem_ctrl.rdQLenPdf::22                       0                       # What read queue length does an incoming req see
system.mem_ctrl.rdQLenPdf::23                       0                       # What read queue length does an incoming req see
system.mem_ctrl.rdQLenPdf::24                       0                       # What read queue length does an incoming req see
system.mem_ctrl.rdQLenPdf::25                       0                       # What read queue length does an incoming req see
system.mem_ctrl.rdQLenPdf::26                       0                       # What read queue length does an incoming req see
system.mem_ctrl.rdQLenPdf::27                       0                       # What read queue length does an incoming req see
system.mem_ctrl.rdQLenPdf::28                       0                       # What read queue length does an incoming req see
system.mem_ctrl.rdQLenPdf::29                       0                       # What read queue length does an incoming req see
system.mem_ctrl.rdQLenPdf::30                       0                       # What read queue length does an incoming req see
system.mem_ctrl.rdQLenPdf::31                       0                       # What read queue length does an incoming req see
system.mem_ctrl.wrQLenPdf::0                        0                       # What write queue length does an incoming req see
system.mem_ctrl.wrQLenPdf::1                        0                       # What write queue length does an incoming req see
system.mem_ctrl.wrQLenPdf::2                        0                       # What write queue length does an incoming req see
system.mem_ctrl.wrQLenPdf::3                        0                       # What write queue length does an incoming req see
system.mem_ctrl.wrQLenPdf::4                        0                       # What write queue length does an incoming req see
system.mem_ctrl.wrQLenPdf::5                        0                       # What write queue length does an incoming req see
system.mem_ctrl.wrQLenPdf::6                        0                       # What write queue length does an incoming req see
system.mem_ctrl.wrQLenPdf::7                        0                       # What write queue length does an incoming req see
system.mem_ctrl.wrQLenPdf::8                        0                       # What write queue length does an incoming req see
system.mem_ctrl.wrQLenPdf::9                        0                       # What write queue length does an incoming req see
system.mem_ctrl.wrQLenPdf::10                       0                       # What write queue length does an incoming req see
system.mem_ctrl.wrQLenPdf::11                       0                       # What write queue length does an incoming req see
system.mem_ctrl.wrQLenPdf::12                       0                       # What write queue length does an incoming req see
system.mem_ctrl.wrQLenPdf::13                       0                       # What write queue length does an incoming req see
system.mem_ctrl.wrQLenPdf::14                       0                       # What write queue length does an incoming req see
system.mem_ctrl.wrQLenPdf::15                       0                       # What write queue length does an incoming req see
system.mem_ctrl.wrQLenPdf::16                       0                       # What write queue length does an incoming req see
system.mem_ctrl.wrQLenPdf::17                       0                       # What write queue length does an incoming req see
system.mem_ctrl.wrQLenPdf::18                       0                       # What write queue length does an incoming req see
system.mem_ctrl.wrQLenPdf::19                       0                       # What write queue length does an incoming req see
system.mem_ctrl.wrQLenPdf::20                       0                       # What write queue length does an incoming req see
system.mem_ctrl.wrQLenPdf::21                       0                       # What write queue length does an incoming req see
system.mem_ctrl.wrQLenPdf::22                       0                       # What write queue length does an incoming req see
system.mem_ctrl.wrQLenPdf::23                       0                       # What write queue length does an incoming req see
system.mem_ctrl.wrQLenPdf::24                       0                       # What write queue length does an incoming req see
system.mem_ctrl.wrQLenPdf::25                       0                       # What write queue length does an incoming req see
system.mem_ctrl.wrQLenPdf::26                       0                       # What write queue length does an incoming req see
system.mem_ctrl.wrQLenPdf::27                       0                       # What write queue length does an incoming req see
system.mem_ctrl.wrQLenPdf::28                       0                       # What write queue length does an incoming req see
system.mem_ctrl.wrQLenPdf::29                       0                       # What write queue length does an incoming req see
system.mem_ctrl.wrQLenPdf::30                       0                       # What write queue length does an incoming req see
system.mem_ctrl.wrQLenPdf::31                       0                       # What write queue length does an incoming req see
system.mem_ctrl.wrQLenPdf::32                       0                       # What write queue length does an incoming req see
system.mem_ctrl.wrQLenPdf::33                       0                       # What write queue length does an incoming req see
system.mem_ctrl.wrQLenPdf::34                       0                       # What write queue length does an incoming req see
system.mem_ctrl.wrQLenPdf::35                       0                       # What write queue length does an incoming req see
system.mem_ctrl.wrQLenPdf::36                       0                       # What write queue length does an incoming req see
system.mem_ctrl.wrQLenPdf::37                       0                       # What write queue length does an incoming req see
system.mem_ctrl.wrQLenPdf::38                       0                       # What write queue length does an incoming req see
system.mem_ctrl.wrQLenPdf::39                       0                       # What write queue length does an incoming req see
system.mem_ctrl.wrQLenPdf::40                       0                       # What write queue length does an incoming req see
system.mem_ctrl.wrQLenPdf::41                       0                       # What write queue length does an incoming req see
system.mem_ctrl.wrQLenPdf::42                       0                       # What write queue length does an incoming req see
system.mem_ctrl.wrQLenPdf::43                       0                       # What write queue length does an incoming req see
system.mem_ctrl.wrQLenPdf::44                       0                       # What write queue length does an incoming req see
system.mem_ctrl.wrQLenPdf::45                       0                       # What write queue length does an incoming req see
system.mem_ctrl.wrQLenPdf::46                       0                       # What write queue length does an incoming req see
system.mem_ctrl.wrQLenPdf::47                       0                       # What write queue length does an incoming req see
system.mem_ctrl.wrQLenPdf::48                       0                       # What write queue length does an incoming req see
system.mem_ctrl.wrQLenPdf::49                       0                       # What write queue length does an incoming req see
system.mem_ctrl.wrQLenPdf::50                       0                       # What write queue length does an incoming req see
system.mem_ctrl.wrQLenPdf::51                       0                       # What write queue length does an incoming req see
system.mem_ctrl.wrQLenPdf::52                       0                       # What write queue length does an incoming req see
system.mem_ctrl.wrQLenPdf::53                       0                       # What write queue length does an incoming req see
system.mem_ctrl.wrQLenPdf::54                       0                       # What write queue length does an incoming req see
system.mem_ctrl.wrQLenPdf::55                       0                       # What write queue length does an incoming req see
system.mem_ctrl.wrQLenPdf::56                       0                       # What write queue length does an incoming req see
system.mem_ctrl.wrQLenPdf::57                       0                       # What write queue length does an incoming req see
system.mem_ctrl.wrQLenPdf::58                       0                       # What write queue length does an incoming req see
system.mem_ctrl.wrQLenPdf::59                       0                       # What write queue length does an incoming req see
system.mem_ctrl.wrQLenPdf::60                       0                       # What write queue length does an incoming req see
system.mem_ctrl.wrQLenPdf::61                       0                       # What write queue length does an incoming req see
system.mem_ctrl.wrQLenPdf::62                       0                       # What write queue length does an incoming req see
system.mem_ctrl.wrQLenPdf::63                       0                       # What write queue length does an incoming req see
system.mem_ctrl.bytesPerActivate::samples         8906                       # Bytes accessed per row activation
system.mem_ctrl.bytesPerActivate::mean     197.346508                       # Bytes accessed per row activation
system.mem_ctrl.bytesPerActivate::gmean    187.657963                       # Bytes accessed per row activation
system.mem_ctrl.bytesPerActivate::stdev     86.075937                       # Bytes accessed per row activation
system.mem_ctrl.bytesPerActivate::0-127           413      4.64%      4.64% # Bytes accessed per row activation
system.mem_ctrl.bytesPerActivate::128-255         7889     88.58%     93.22% # Bytes accessed per row activation
system.mem_ctrl.bytesPerActivate::256-383          463      5.20%     98.42% # Bytes accessed per row activation
system.mem_ctrl.bytesPerActivate::384-511           34      0.38%     98.80% # Bytes accessed per row activation
system.mem_ctrl.bytesPerActivate::512-639           20      0.22%     99.02% # Bytes accessed per row activation
system.mem_ctrl.bytesPerActivate::640-767           10      0.11%     99.14% # Bytes accessed per row activation
system.mem_ctrl.bytesPerActivate::768-895            6      0.07%     99.20% # Bytes accessed per row activation
system.mem_ctrl.bytesPerActivate::896-1023            6      0.07%     99.27% # Bytes accessed per row activation
system.mem_ctrl.bytesPerActivate::1024-1151           65      0.73%    100.00% # Bytes accessed per row activation
system.mem_ctrl.bytesPerActivate::total          8906                       # Bytes accessed per row activation
system.mem_ctrl.masterReadBytes::.cpu.inst        52544                       # Per-master bytes read from memory
system.mem_ctrl.masterReadBytes::.cpu.data      1706880                       # Per-master bytes read from memory
system.mem_ctrl.masterReadRate::.cpu.inst 731496.168955178233                       # Per-master bytes read from memory rate (Bytes/sec)
system.mem_ctrl.masterReadRate::.cpu.data 23762488.216850914061                       # Per-master bytes read from memory rate (Bytes/sec)
system.mem_ctrl.masterReadAccesses::.cpu.inst          821                       # Per-master read serviced memory accesses
system.mem_ctrl.masterReadAccesses::.cpu.data        26670                       # Per-master read serviced memory accesses
system.mem_ctrl.masterReadTotalLat::.cpu.inst     34389500                       # Per-master read total memory access latency
system.mem_ctrl.masterReadTotalLat::.cpu.data   1532938750                       # Per-master read total memory access latency
system.mem_ctrl.masterReadAvgLat::.cpu.inst     41887.33                       # Per-master read average memory access latency
system.mem_ctrl.masterReadAvgLat::.cpu.data     57478.02                       # Per-master read average memory access latency
system.mem_ctrl.totQLat                    1051872000                       # Total ticks spent queuing
system.mem_ctrl.totMemAccLat               1567328250                       # Total ticks spent from burst creation until serviced by the DRAM
system.mem_ctrl.totBusLat                   137455000                       # Total ticks spent in databus transfers
system.mem_ctrl.avgQLat                      38262.41                       # Average queueing delay per DRAM burst
system.mem_ctrl.avgBusLat                     5000.00                       # Average bus latency per DRAM burst
system.mem_ctrl.avgMemAccLat                 57012.41                       # Average memory access latency per DRAM burst
system.mem_ctrl.avgRdBW                         24.49                       # Average DRAM read bandwidth in MiByte/s
system.mem_ctrl.avgWrBW                          0.00                       # Average achieved write bandwidth in MiByte/s
system.mem_ctrl.avgRdBWSys                      24.49                       # Average system read bandwidth in MiByte/s
system.mem_ctrl.avgWrBWSys                       0.00                       # Average system write bandwidth in MiByte/s
system.mem_ctrl.peakBW                       12800.00                       # Theoretical peak bandwidth in MiByte/s
system.mem_ctrl.busUtil                          0.19                       # Data bus utilization in percentage
system.mem_ctrl.busUtilRead                      0.19                       # Data bus utilization in percentage for reads
system.mem_ctrl.busUtilWrite                     0.00                       # Data bus utilization in percentage for writes
system.mem_ctrl.avgRdQLen                        1.00                       # Average read queue length when enqueuing
system.mem_ctrl.avgWrQLen                        0.00                       # Average write queue length when enqueuing
system.mem_ctrl.readRowHits                     18577                       # Number of row buffer hits during reads
system.mem_ctrl.writeRowHits                        0                       # Number of row buffer hits during writes
system.mem_ctrl.readRowHitRate                  67.57                       # Row buffer hit rate for reads
system.mem_ctrl.writeRowHitRate                   nan                       # Row buffer hit rate for writes
system.mem_ctrl.avgGap                     2612883.40                       # Average gap between requests
system.mem_ctrl.pageHitRate                     67.57                       # Row buffer hit rate, read and write combined
system.mem_ctrl_0.actEnergy                  32229960                       # Energy for activate commands per rank (pJ)
system.mem_ctrl_0.preEnergy                  17111655                       # Energy for precharge commands per rank (pJ)
system.mem_ctrl_0.readEnergy                 98182140                       # Energy for read commands per rank (pJ)
system.mem_ctrl_0.writeEnergy                       0                       # Energy for write commands per rank (pJ)
system.mem_ctrl_0.refreshEnergy          2603000400.000000                       # Energy for refresh commands per rank (pJ)
system.mem_ctrl_0.actBackEnergy             657663720                       # Energy for active background per rank (pJ)
system.mem_ctrl_0.preBackEnergy              56120640                       # Energy for precharge background per rank (pJ)
system.mem_ctrl_0.actPowerDownEnergy      13110262770                       # Energy for active power-down per rank (pJ)
system.mem_ctrl_0.prePowerDownEnergy       1015536960                       # Energy for precharge power-down per rank (pJ)
system.mem_ctrl_0.selfRefreshEnergy        9333284220                       # Energy for self refresh per rank (pJ)
system.mem_ctrl_0.totalEnergy             26923549515                       # Total energy per rank (pJ)
system.mem_ctrl_0.averagePower             374.818691                       # Core power per rank (mW)
system.mem_ctrl_0.totalIdleTime           70241197000                       # Total Idle time Per DRAM Rank
system.mem_ctrl_0.memoryStateTime::IDLE      30336500                       # Time in different power states
system.mem_ctrl_0.memoryStateTime::REF     1101100000                       # Time in different power states
system.mem_ctrl_0.memoryStateTime::SREF   38846914250                       # Time in different power states
system.mem_ctrl_0.memoryStateTime::PRE_PDN   2644612000                       # Time in different power states
system.mem_ctrl_0.memoryStateTime::ACT      458187250                       # Time in different power states
system.mem_ctrl_0.memoryStateTime::ACT_PDN  28749711500                       # Time in different power states
system.mem_ctrl_1.actEnergy                  31416000                       # Energy for activate commands per rank (pJ)
system.mem_ctrl_1.preEnergy                  16686615                       # Energy for precharge commands per rank (pJ)
system.mem_ctrl_1.readEnergy                 98103600                       # Energy for read commands per rank (pJ)
system.mem_ctrl_1.writeEnergy                       0                       # Energy for write commands per rank (pJ)
system.mem_ctrl_1.refreshEnergy          2572883040.000000                       # Energy for refresh commands per rank (pJ)
system.mem_ctrl_1.actBackEnergy             651820650                       # Energy for active background per rank (pJ)
system.mem_ctrl_1.preBackEnergy              58073760                       # Energy for precharge background per rank (pJ)
system.mem_ctrl_1.actPowerDownEnergy      12780847230                       # Energy for active power-down per rank (pJ)
system.mem_ctrl_1.prePowerDownEnergy       1152092160                       # Energy for precharge power-down per rank (pJ)
system.mem_ctrl_1.selfRefreshEnergy        9436422180                       # Energy for self refresh per rank (pJ)
system.mem_ctrl_1.totalEnergy             26798345235                       # Total energy per rank (pJ)
system.mem_ctrl_1.averagePower             373.075648                       # Core power per rank (mW)
system.mem_ctrl_1.totalIdleTime           70249583250                       # Total Idle time Per DRAM Rank
system.mem_ctrl_1.memoryStateTime::IDLE      36616000                       # Time in different power states
system.mem_ctrl_1.memoryStateTime::REF     1088360000                       # Time in different power states
system.mem_ctrl_1.memoryStateTime::SREF   39221785000                       # Time in different power states
system.mem_ctrl_1.memoryStateTime::PRE_PDN   3000256000                       # Time in different power states
system.mem_ctrl_1.memoryStateTime::ACT      456057500                       # Time in different power states
system.mem_ctrl_1.memoryStateTime::ACT_PDN  28027787000                       # Time in different power states
system.pwrStateResidencyTicks::UNDEFINED  71830861500                       # Cumulative time (in ticks) in various power states
system.cpu.branchPred.lookups                23595014                       # Number of BP lookups
system.cpu.branchPred.condPredicted          23595014                       # Number of conditional branches predicted
system.cpu.branchPred.condIncorrect            359919                       # Number of conditional branches incorrect
system.cpu.branchPred.BTBLookups             19703161                       # Number of BTB lookups
system.cpu.branchPred.BTBHits                       0                       # Number of BTB hits
system.cpu.branchPred.BTBCorrect                    0                       # Number of correct BTB predictions (this stat may not work properly.
system.cpu.branchPred.BTBHitPct              0.000000                       # BTB Hit Percentage
system.cpu.branchPred.usedRAS                  725933                       # Number of times the RAS was used to get a target.
system.cpu.branchPred.RASInCorrect                844                       # Number of incorrect RAS predictions.
system.cpu.branchPred.indirectLookups        19703161                       # Number of indirect predictor lookups.
system.cpu.branchPred.indirectHits            8380795                       # Number of indirect target hits.
system.cpu.branchPred.indirectMisses         11322366                       # Number of indirect misses.
system.cpu.branchPredindirectMispredicted       290474                       # Number of mispredicted indirect branches.
system.cpu.dtb.walker.pwrStateResidencyTicks::UNDEFINED  71830861500                       # Cumulative time (in ticks) in various power states
system.cpu.dtb.rdAccesses                    19125799                       # TLB accesses on read requests
system.cpu.dtb.wrAccesses                    11987516                       # TLB accesses on write requests
system.cpu.dtb.rdMisses                        102154                       # TLB misses on read requests
system.cpu.dtb.wrMisses                           551                       # TLB misses on write requests
system.cpu.apic_clk_domain.clock                 8000                       # Clock period in ticks
system.cpu.interrupts.pwrStateResidencyTicks::UNDEFINED  71830861500                       # Cumulative time (in ticks) in various power states
system.cpu.itb.walker.pwrStateResidencyTicks::UNDEFINED  71830861500                       # Cumulative time (in ticks) in various power states
system.cpu.itb.rdAccesses                           0                       # TLB accesses on read requests
system.cpu.itb.wrAccesses                    13852892                       # TLB accesses on write requests
system.cpu.itb.rdMisses                             0                       # TLB misses on read requests
system.cpu.itb.wrMisses                           132                       # TLB misses on write requests
system.cpu.workload.numSyscalls                    86                       # Number of system calls
system.cpu.pwrStateResidencyTicks::ON     71830861500                       # Cumulative time (in ticks) in various power states
system.cpu.numCycles                        143661724                       # number of cpu cycles simulated
system.cpu.numWorkItemsStarted                      0                       # number of work items this cpu started
system.cpu.numWorkItemsCompleted                    0                       # number of work items this cpu completed
system.cpu.fetch.icacheStallCycles             406921                       # Number of cycles fetch is stalled on an Icache miss
system.cpu.fetch.Insts                      101448077                       # Number of instructions fetch has processed
system.cpu.fetch.Branches                    23595014                       # Number of branches that fetch encountered
system.cpu.fetch.predictedBranches            9106728                       # Number of branches that fetch has predicted taken
system.cpu.fetch.Cycles                     142853578                       # Number of cycles fetch has run and was not squashing or blocked
system.cpu.fetch.SquashCycles                  721328                       # Number of cycles fetch has spent squashing
system.cpu.fetch.MiscStallCycles                   51                       # Number of cycles fetch has spent waiting on interrupts, or bad addresses, or out of MSHRs
system.cpu.fetch.PendingTrapStallCycles           681                       # Number of stall cycles due to pending traps
system.cpu.fetch.PendingQuiesceStallCycles           29                       # Number of stall cycles due to pending quiesce instructions
system.cpu.fetch.CacheLines                  13852818                       # Number of cache lines fetched
system.cpu.fetch.IcacheSquashes                   572                       # Number of outstanding Icache misses that were squashed
system.cpu.fetch.rateDist::samples          143621924                       # Number of instructions fetched each cycle (Total)
system.cpu.fetch.rateDist::mean              1.308020                       # Number of instructions fetched each cycle (Total)
system.cpu.fetch.rateDist::stdev             1.774028                       # Number of instructions fetched each cycle (Total)
system.cpu.fetch.rateDist::underflows               0      0.00%      0.00% # Number of instructions fetched each cycle (Total)
system.cpu.fetch.rateDist::0                 88362711     61.52%     61.52% # Number of instructions fetched each cycle (Total)
system.cpu.fetch.rateDist::1                  6088015      4.24%     65.76% # Number of instructions fetched each cycle (Total)
system.cpu.fetch.rateDist::2                  4644263      3.23%     69.00% # Number of instructions fetched each cycle (Total)
system.cpu.fetch.rateDist::3                  5623928      3.92%     72.91% # Number of instructions fetched each cycle (Total)
system.cpu.fetch.rateDist::4                 38903007     27.09%    100.00% # Number of instructions fetched each cycle (Total)
system.cpu.fetch.rateDist::overflows                0      0.00%    100.00% # Number of instructions fetched each cycle (Total)
system.cpu.fetch.rateDist::min_value                0                       # Number of instructions fetched each cycle (Total)
system.cpu.fetch.rateDist::max_value                4                       # Number of instructions fetched each cycle (Total)
system.cpu.fetch.rateDist::total            143621924                       # Number of instructions fetched each cycle (Total)
system.cpu.fetch.branchRate                  0.164240                       # Number of branch fetches per cycle
system.cpu.fetch.rate                        0.706159                       # Number of inst fetches per cycle
system.cpu.decode.IdleCycles                 14836850                       # Number of cycles decode is idle
system.cpu.decode.BlockedCycles              84352231                       # Number of cycles decode is blocked
system.cpu.decode.RunCycles                  22085941                       # Number of cycles decode is running
system.cpu.decode.UnblockCycles              21986238                       # Number of cycles decode is unblocking
system.cpu.decode.SquashCycles                 360664                       # Number of cycles decode is squashing
system.cpu.decode.DecodedInsts              173714519                       # Number of instructions handled by decode
system.cpu.decode.SquashedInsts                540360                       # Number of squashed instructions handled by decode
system.cpu.rename.SquashCycles                 360664                       # Number of cycles rename is squashing
system.cpu.rename.IdleCycles                 32180212                       # Number of cycles rename is idle
system.cpu.rename.BlockCycles                 6950406                       # Number of cycles rename is blocking
system.cpu.rename.serializeStallCycles           6605                       # count of cycles rename stalled for serializing inst
system.cpu.rename.RunCycles                  26652359                       # Number of cycles rename is running
system.cpu.rename.UnblockCycles              77471678                       # Number of cycles rename is unblocking
system.cpu.rename.RenamedInsts              171879234                       # Number of instructions processed by rename
system.cpu.rename.SquashedInsts                449062                       # Number of squashed instructions processed by rename
system.cpu.rename.ROBFullEvents                  1251                       # Number of times rename has blocked due to ROB full
system.cpu.rename.IQFullEvents               66857526                       # Number of times rename has blocked due to IQ full
system.cpu.rename.LQFullEvents                  50735                       # Number of times rename has blocked due to LQ full
system.cpu.rename.SQFullEvents                5657454                       # Number of times rename has blocked due to SQ full
system.cpu.rename.FullRegisterEvents           108343                       # Number of times there has been no free registers
system.cpu.rename.RenamedOperands           192612789                       # Number of destination operands rename has renamed
system.cpu.rename.RenameLookups             437042167                       # Number of register rename lookups that rename has made
system.cpu.rename.int_rename_lookups        252623963                       # Number of integer rename lookups
system.cpu.rename.fp_rename_lookups            304524                       # Number of floating rename lookups
system.cpu.rename.CommittedMaps             177569425                       # Number of HB maps that are committed
system.cpu.rename.UndoneMaps                 15043364                       # Number of HB maps that are undone due to squashing
system.cpu.rename.serializingInsts                116                       # count of serializing insts renamed
system.cpu.rename.tempSerializingInsts            115                       # count of temporary serializing insts renamed
system.cpu.rename.skidInsts                  87635096                       # count of insts added to the skid buffer
system.cpu.memDep0.insertedLoads             20202339                       # Number of loads inserted to the mem dependence unit.
system.cpu.memDep0.insertedStores            12531621                       # Number of stores inserted to the mem dependence unit.
system.cpu.memDep0.conflictingLoads           1723872                       # Number of conflicting loads.
system.cpu.memDep0.conflictingStores           916583                       # Number of conflicting stores.
system.cpu.iq.iqInstsAdded                  170895828                       # Number of instructions added to the IQ (excludes non-spec)
system.cpu.iq.iqNonSpecInstsAdded                 647                       # Number of non-speculative instructions added to the IQ
system.cpu.iq.iqInstsIssued                 161360772                       # Number of instructions issued
system.cpu.iq.iqSquashedInstsIssued           4031333                       # Number of squashed instructions issued
system.cpu.iq.iqSquashedInstsExamined        12800501                       # Number of squashed instructions iterated over during squash; mainly for profiling
system.cpu.iq.iqSquashedOperandsExamined     24354149                       # Number of squashed operands that are examined and possibly removed from graph
system.cpu.iq.iqSquashedNonSpecRemoved            561                       # Number of squashed non-spec instructions that were removed
system.cpu.iq.issued_per_cycle::samples     143621924                       # Number of insts issued each cycle
system.cpu.iq.issued_per_cycle::mean         1.123511                       # Number of insts issued each cycle
system.cpu.iq.issued_per_cycle::stdev        0.548212                       # Number of insts issued each cycle
system.cpu.iq.issued_per_cycle::underflows            0      0.00%      0.00% # Number of insts issued each cycle
system.cpu.iq.issued_per_cycle::0            13367221      9.31%      9.31% # Number of insts issued each cycle
system.cpu.iq.issued_per_cycle::1            99539408     69.31%     78.61% # Number of insts issued each cycle
system.cpu.iq.issued_per_cycle::2            30374395     21.15%     99.76% # Number of insts issued each cycle
system.cpu.iq.issued_per_cycle::3              291026      0.20%     99.97% # Number of insts issued each cycle
system.cpu.iq.issued_per_cycle::4               49874      0.03%    100.00% # Number of insts issued each cycle
system.cpu.iq.issued_per_cycle::overflows            0      0.00%    100.00% # Number of insts issued each cycle
system.cpu.iq.issued_per_cycle::min_value            0                       # Number of insts issued each cycle
system.cpu.iq.issued_per_cycle::max_value            4                       # Number of insts issued each cycle
system.cpu.iq.issued_per_cycle::total       143621924                       # Number of insts issued each cycle
system.cpu.iq.fu_full::No_OpClass                   0      0.00%      0.00% # attempts to use FU when none available
system.cpu.iq.fu_full::IntAlu               127166384     95.47%     95.47% # attempts to use FU when none available
system.cpu.iq.fu_full::IntMult                      0      0.00%     95.47% # attempts to use FU when none available
system.cpu.iq.fu_full::IntDiv                       0      0.00%     95.47% # attempts to use FU when none available
system.cpu.iq.fu_full::FloatAdd                     0      0.00%     95.47% # attempts to use FU when none available
system.cpu.iq.fu_full::FloatCmp                     0      0.00%     95.47% # attempts to use FU when none available
system.cpu.iq.fu_full::FloatCvt                     0      0.00%     95.47% # attempts to use FU when none available
system.cpu.iq.fu_full::FloatMult                    0      0.00%     95.47% # attempts to use FU when none available
system.cpu.iq.fu_full::FloatMultAcc                 0      0.00%     95.47% # attempts to use FU when none available
system.cpu.iq.fu_full::FloatDiv                     0      0.00%     95.47% # attempts to use FU when none available
system.cpu.iq.fu_full::FloatMisc                    0      0.00%     95.47% # attempts to use FU when none available
system.cpu.iq.fu_full::FloatSqrt                    0      0.00%     95.47% # attempts to use FU when none available
system.cpu.iq.fu_full::SimdAdd                    252      0.00%     95.47% # attempts to use FU when none available
system.cpu.iq.fu_full::SimdAddAcc                   0      0.00%     95.47% # attempts to use FU when none available
system.cpu.iq.fu_full::SimdAlu                     79      0.00%     95.47% # attempts to use FU when none available
system.cpu.iq.fu_full::SimdCmp                      1      0.00%     95.47% # attempts to use FU when none available
system.cpu.iq.fu_full::SimdCvt                     71      0.00%     95.47% # attempts to use FU when none available
system.cpu.iq.fu_full::SimdMisc                   143      0.00%     95.47% # attempts to use FU when none available
system.cpu.iq.fu_full::SimdMult                     0      0.00%     95.47% # attempts to use FU when none available
system.cpu.iq.fu_full::SimdMultAcc                  0      0.00%     95.47% # attempts to use FU when none available
system.cpu.iq.fu_full::SimdShift                  120      0.00%     95.47% # attempts to use FU when none available
system.cpu.iq.fu_full::SimdShiftAcc                 0      0.00%     95.47% # attempts to use FU when none available
system.cpu.iq.fu_full::SimdSqrt                     0      0.00%     95.47% # attempts to use FU when none available
system.cpu.iq.fu_full::SimdFloatAdd                 0      0.00%     95.47% # attempts to use FU when none available
system.cpu.iq.fu_full::SimdFloatAlu                 0      0.00%     95.47% # attempts to use FU when none available
system.cpu.iq.fu_full::SimdFloatCmp                 0      0.00%     95.47% # attempts to use FU when none available
system.cpu.iq.fu_full::SimdFloatCvt                 0      0.00%     95.47% # attempts to use FU when none available
system.cpu.iq.fu_full::SimdFloatDiv                 0      0.00%     95.47% # attempts to use FU when none available
system.cpu.iq.fu_full::SimdFloatMisc                0      0.00%     95.47% # attempts to use FU when none available
system.cpu.iq.fu_full::SimdFloatMult                0      0.00%     95.47% # attempts to use FU when none available
system.cpu.iq.fu_full::SimdFloatMultAcc             0      0.00%     95.47% # attempts to use FU when none available
system.cpu.iq.fu_full::SimdFloatSqrt                0      0.00%     95.47% # attempts to use FU when none available
system.cpu.iq.fu_full::SimdAes                      0      0.00%     95.47% # attempts to use FU when none available
system.cpu.iq.fu_full::SimdAesMix                   0      0.00%     95.47% # attempts to use FU when none available
system.cpu.iq.fu_full::SimdSha1Hash                 0      0.00%     95.47% # attempts to use FU when none available
system.cpu.iq.fu_full::SimdSha1Hash2                0      0.00%     95.47% # attempts to use FU when none available
system.cpu.iq.fu_full::SimdSha256Hash               0      0.00%     95.47% # attempts to use FU when none available
system.cpu.iq.fu_full::SimdSha256Hash2              0      0.00%     95.47% # attempts to use FU when none available
system.cpu.iq.fu_full::SimdShaSigma2                0      0.00%     95.47% # attempts to use FU when none available
system.cpu.iq.fu_full::SimdShaSigma3                0      0.00%     95.47% # attempts to use FU when none available
system.cpu.iq.fu_full::MemRead                5046346      3.79%     99.25% # attempts to use FU when none available
system.cpu.iq.fu_full::MemWrite                993801      0.75%    100.00% # attempts to use FU when none available
system.cpu.iq.fu_full::FloatMemRead                 0      0.00%    100.00% # attempts to use FU when none available
system.cpu.iq.fu_full::FloatMemWrite                0      0.00%    100.00% # attempts to use FU when none available
system.cpu.iq.fu_full::IprAccess                    0      0.00%    100.00% # attempts to use FU when none available
system.cpu.iq.fu_full::InstPrefetch                 0      0.00%    100.00% # attempts to use FU when none available
system.cpu.iq.FU_type_0::No_OpClass            324674      0.20%      0.20% # Type of FU issued
system.cpu.iq.FU_type_0::IntAlu             129307029     80.14%     80.34% # Type of FU issued
system.cpu.iq.FU_type_0::IntMult               395332      0.24%     80.58% # Type of FU issued
system.cpu.iq.FU_type_0::IntDiv                    30      0.00%     80.58% # Type of FU issued
system.cpu.iq.FU_type_0::FloatAdd              100048      0.06%     80.64% # Type of FU issued
system.cpu.iq.FU_type_0::FloatCmp                   0      0.00%     80.64% # Type of FU issued
system.cpu.iq.FU_type_0::FloatCvt                   0      0.00%     80.64% # Type of FU issued
system.cpu.iq.FU_type_0::FloatMult                  0      0.00%     80.64% # Type of FU issued
system.cpu.iq.FU_type_0::FloatMultAcc               0      0.00%     80.64% # Type of FU issued
system.cpu.iq.FU_type_0::FloatDiv                   0      0.00%     80.64% # Type of FU issued
system.cpu.iq.FU_type_0::FloatMisc                  0      0.00%     80.64% # Type of FU issued
system.cpu.iq.FU_type_0::FloatSqrt                  0      0.00%     80.64% # Type of FU issued
system.cpu.iq.FU_type_0::SimdAdd                  378      0.00%     80.64% # Type of FU issued
system.cpu.iq.FU_type_0::SimdAddAcc                 0      0.00%     80.64% # Type of FU issued
system.cpu.iq.FU_type_0::SimdAlu                  107      0.00%     80.64% # Type of FU issued
system.cpu.iq.FU_type_0::SimdCmp                    6      0.00%     80.64% # Type of FU issued
system.cpu.iq.FU_type_0::SimdCvt                  159      0.00%     80.64% # Type of FU issued
system.cpu.iq.FU_type_0::SimdMisc                 264      0.00%     80.64% # Type of FU issued
system.cpu.iq.FU_type_0::SimdMult                   0      0.00%     80.64% # Type of FU issued
system.cpu.iq.FU_type_0::SimdMultAcc                0      0.00%     80.64% # Type of FU issued
system.cpu.iq.FU_type_0::SimdShift                186      0.00%     80.64% # Type of FU issued
system.cpu.iq.FU_type_0::SimdShiftAcc               0      0.00%     80.64% # Type of FU issued
system.cpu.iq.FU_type_0::SimdSqrt                   0      0.00%     80.64% # Type of FU issued
system.cpu.iq.FU_type_0::SimdFloatAdd               0      0.00%     80.64% # Type of FU issued
system.cpu.iq.FU_type_0::SimdFloatAlu               0      0.00%     80.64% # Type of FU issued
system.cpu.iq.FU_type_0::SimdFloatCmp               0      0.00%     80.64% # Type of FU issued
system.cpu.iq.FU_type_0::SimdFloatCvt               0      0.00%     80.64% # Type of FU issued
system.cpu.iq.FU_type_0::SimdFloatDiv               0      0.00%     80.64% # Type of FU issued
system.cpu.iq.FU_type_0::SimdFloatMisc              0      0.00%     80.64% # Type of FU issued
system.cpu.iq.FU_type_0::SimdFloatMult              0      0.00%     80.64% # Type of FU issued
system.cpu.iq.FU_type_0::SimdFloatMultAcc            0      0.00%     80.64% # Type of FU issued
system.cpu.iq.FU_type_0::SimdFloatSqrt              0      0.00%     80.64% # Type of FU issued
system.cpu.iq.FU_type_0::SimdAes                    0      0.00%     80.64% # Type of FU issued
system.cpu.iq.FU_type_0::SimdAesMix                 0      0.00%     80.64% # Type of FU issued
system.cpu.iq.FU_type_0::SimdSha1Hash               0      0.00%     80.64% # Type of FU issued
system.cpu.iq.FU_type_0::SimdSha1Hash2              0      0.00%     80.64% # Type of FU issued
system.cpu.iq.FU_type_0::SimdSha256Hash             0      0.00%     80.64% # Type of FU issued
system.cpu.iq.FU_type_0::SimdSha256Hash2            0      0.00%     80.64% # Type of FU issued
system.cpu.iq.FU_type_0::SimdShaSigma2              0      0.00%     80.64% # Type of FU issued
system.cpu.iq.FU_type_0::SimdShaSigma3              0      0.00%     80.64% # Type of FU issued
system.cpu.iq.FU_type_0::MemRead             18937742     11.74%     92.38% # Type of FU issued
system.cpu.iq.FU_type_0::MemWrite            11693975      7.25%     99.63% # Type of FU issued
system.cpu.iq.FU_type_0::FloatMemRead          300253      0.19%     99.81% # Type of FU issued
system.cpu.iq.FU_type_0::FloatMemWrite         300589      0.19%    100.00% # Type of FU issued
system.cpu.iq.FU_type_0::IprAccess                  0      0.00%    100.00% # Type of FU issued
system.cpu.iq.FU_type_0::InstPrefetch               0      0.00%    100.00% # Type of FU issued
system.cpu.iq.FU_type_0::total              161360772                       # Type of FU issued
system.cpu.iq.rate                           1.123199                       # Inst issue rate
system.cpu.iq.fu_busy_cnt                   133207197                       # FU busy when requested
system.cpu.iq.fu_busy_rate                   0.825524                       # FU busy rate (busy events/executed inst)
system.cpu.iq.int_inst_queue_reads          602175916                       # Number of integer instruction queue reads
system.cpu.iq.int_inst_queue_writes         182994565                       # Number of integer instruction queue writes
system.cpu.iq.int_inst_queue_wakeup_accesses    159723506                       # Number of integer instruction queue wakeup accesses
system.cpu.iq.fp_inst_queue_reads             1406082                       # Number of floating instruction queue reads
system.cpu.iq.fp_inst_queue_writes             703122                       # Number of floating instruction queue writes
system.cpu.iq.fp_inst_queue_wakeup_accesses       702405                       # Number of floating instruction queue wakeup accesses
system.cpu.iq.vec_inst_queue_reads                  0                       # Number of vector instruction queue reads
system.cpu.iq.vec_inst_queue_writes                 0                       # Number of vector instruction queue writes
system.cpu.iq.vec_inst_queue_wakeup_accesses            0                       # Number of vector instruction queue wakeup accesses
system.cpu.iq.int_alu_accesses              293539738                       # Number of integer alu accesses
system.cpu.iq.fp_alu_accesses                  703557                       # Number of floating point alu accesses
system.cpu.iq.vec_alu_accesses                      0                       # Number of vector alu accesses
system.cpu.iew.lsq.thread0.forwLoads          1659187                       # Number of loads that had data forwarded from stores
system.cpu.iew.lsq.thread0.invAddrLoads             0                       # Number of loads ignored due to an invalid address
system.cpu.iew.lsq.thread0.squashedLoads      1715725                       # Number of loads squashed
system.cpu.iew.lsq.thread0.ignoredResponses        50659                       # Number of memory responses ignored because the instruction is squashed
system.cpu.iew.lsq.thread0.memOrderViolation          715                       # Number of memory ordering violations
system.cpu.iew.lsq.thread0.squashedStores       934580                       # Number of stores squashed
system.cpu.iew.lsq.thread0.invAddrSwpfs             0                       # Number of software prefetches ignored due to an invalid address
system.cpu.iew.lsq.thread0.blockedLoads             0                       # Number of blocked loads due to partial load-store forwarding
system.cpu.iew.lsq.thread0.rescheduledLoads            3                       # Number of loads that were rescheduled
system.cpu.iew.lsq.thread0.cacheBlocked           102                       # Number of times an access to memory failed due to the cache being blocked
system.cpu.iew.iewIdleCycles                        0                       # Number of cycles IEW is idle
system.cpu.iew.iewSquashCycles                 360664                       # Number of cycles IEW is squashing
system.cpu.iew.iewBlockCycles                 4336697                       # Number of cycles IEW is blocking
system.cpu.iew.iewUnblockCycles                113043                       # Number of cycles IEW is unblocking
system.cpu.iew.iewDispatchedInsts           170896475                       # Number of instructions dispatched to IQ
system.cpu.iew.iewDispSquashedInsts            137355                       # Number of squashed instructions skipped by dispatch
system.cpu.iew.iewDispLoadInsts              20202339                       # Number of dispatched load instructions
system.cpu.iew.iewDispStoreInsts             12531621                       # Number of dispatched store instructions
system.cpu.iew.iewDispNonSpecInsts                291                       # Number of dispatched non-speculative instructions
system.cpu.iew.iewIQFullEvents                  43609                       # Number of times the IQ has become full, causing a stall
system.cpu.iew.iewLSQFullEvents                  5794                       # Number of times the LSQ has become full, causing a stall
system.cpu.iew.memOrderViolationEvents            715                       # Number of memory order violations
system.cpu.iew.predictedTakenIncorrect          29581                       # Number of branches that were predicted taken incorrectly
system.cpu.iew.predictedNotTakenIncorrect       330734                       # Number of branches that were predicted not taken incorrectly
system.cpu.iew.branchMispredicts               360315                       # Number of branch mispredicts detected at execute
system.cpu.iew.iewExecutedInsts             160585079                       # Number of executed instructions
system.cpu.iew.iewExecLoadInsts              19125688                       # Number of load instructions executed
system.cpu.iew.iewExecSquashedInsts            775693                       # Number of squashed instructions skipped in execute
system.cpu.iew.exec_swp                             0                       # number of swp insts executed
system.cpu.iew.exec_nop                             0                       # number of nop insts executed
system.cpu.iew.exec_refs                     31113203                       # number of memory reference insts executed
system.cpu.iew.exec_branches                 19780695                       # Number of branches executed
system.cpu.iew.exec_stores                   11987515                       # Number of stores executed
system.cpu.iew.exec_rate                     1.117800                       # Inst execution rate
system.cpu.iew.wb_sent                      160438211                       # cumulative count of insts sent to commit
system.cpu.iew.wb_count                     160425911                       # cumulative count of insts written-back
system.cpu.iew.wb_producers                 119939225                       # num instructions producing a value
system.cpu.iew.wb_consumers                 191970020                       # num instructions consuming a value
system.cpu.iew.wb_rate                       1.116692                       # insts written-back per cycle
system.cpu.iew.wb_fanout                     0.624781                       # average fanout of values written-back
system.cpu.commit.commitSquashedInsts        12313337                       # The number of squashed insts skipped by commit
system.cpu.commit.commitNonSpecStalls              86                       # The number of times commit has been forced to stall to communicate backwards
system.cpu.commit.branchMispredicts            359968                       # The number of times a branch was mispredicted
system.cpu.commit.committed_per_cycle::samples    142937980                       # Number of insts commited each cycle
system.cpu.commit.committed_per_cycle::mean     1.106046                       # Number of insts commited each cycle
system.cpu.commit.committed_per_cycle::stdev     1.231090                       # Number of insts commited each cycle
system.cpu.commit.committed_per_cycle::underflows            0      0.00%      0.00% # Number of insts commited each cycle
system.cpu.commit.committed_per_cycle::0     59088338     41.34%     41.34% # Number of insts commited each cycle
system.cpu.commit.committed_per_cycle::1     42263166     29.57%     70.91% # Number of insts commited each cycle
system.cpu.commit.committed_per_cycle::2     18720370     13.10%     84.00% # Number of insts commited each cycle
system.cpu.commit.committed_per_cycle::3     13072357      9.15%     93.15% # Number of insts commited each cycle
system.cpu.commit.committed_per_cycle::4      9793749      6.85%    100.00% # Number of insts commited each cycle
system.cpu.commit.committed_per_cycle::overflows            0      0.00%    100.00% # Number of insts commited each cycle
system.cpu.commit.committed_per_cycle::min_value            0                       # Number of insts commited each cycle
system.cpu.commit.committed_per_cycle::max_value            4                       # Number of insts commited each cycle
system.cpu.commit.committed_per_cycle::total    142937980                       # Number of insts commited each cycle
system.cpu.commit.committedInsts             85121742                       # Number of instructions committed
system.cpu.commit.committedOps              158095973                       # Number of ops (including micro ops) committed
system.cpu.commit.swp_count                         0                       # Number of s/w prefetches committed
system.cpu.commit.refs                       30083655                       # Number of memory references committed
system.cpu.commit.loads                      18486614                       # Number of loads committed
system.cpu.commit.membars                           0                       # Number of memory barriers committed
system.cpu.commit.branches                   19756630                       # Number of branches committed
system.cpu.commit.vec_insts                         0                       # Number of committed Vector instructions.
system.cpu.commit.fp_insts                     702138                       # Number of committed floating point instructions.
system.cpu.commit.int_insts                 157789319                       # Number of committed integer instructions.
system.cpu.commit.function_calls               665498                       # Number of function calls committed.
system.cpu.commit.op_class_0::No_OpClass       100115      0.06%      0.06% # Class of committed instruction
system.cpu.commit.op_class_0::IntAlu        127433462     80.61%     80.67% # Class of committed instruction
system.cpu.commit.op_class_0::IntMult          377627      0.24%     80.91% # Class of committed instruction
system.cpu.commit.op_class_0::IntDiv               28      0.00%     80.91% # Class of committed instruction
system.cpu.commit.op_class_0::FloatAdd         100015      0.06%     80.97% # Class of committed instruction
system.cpu.commit.op_class_0::FloatCmp              0      0.00%     80.97% # Class of committed instruction
system.cpu.commit.op_class_0::FloatCvt              0      0.00%     80.97% # Class of committed instruction
system.cpu.commit.op_class_0::FloatMult             0      0.00%     80.97% # Class of committed instruction
system.cpu.commit.op_class_0::FloatMultAcc            0      0.00%     80.97% # Class of committed instruction
system.cpu.commit.op_class_0::FloatDiv              0      0.00%     80.97% # Class of committed instruction
system.cpu.commit.op_class_0::FloatMisc             0      0.00%     80.97% # Class of committed instruction
system.cpu.commit.op_class_0::FloatSqrt             0      0.00%     80.97% # Class of committed instruction
system.cpu.commit.op_class_0::SimdAdd             374      0.00%     80.97% # Class of committed instruction
system.cpu.commit.op_class_0::SimdAddAcc            0      0.00%     80.97% # Class of committed instruction
system.cpu.commit.op_class_0::SimdAlu             102      0.00%     80.97% # Class of committed instruction
system.cpu.commit.op_class_0::SimdCmp               6      0.00%     80.97% # Class of committed instruction
system.cpu.commit.op_class_0::SimdCvt             144      0.00%     80.97% # Class of committed instruction
system.cpu.commit.op_class_0::SimdMisc            259      0.00%     80.97% # Class of committed instruction
system.cpu.commit.op_class_0::SimdMult              0      0.00%     80.97% # Class of committed instruction
system.cpu.commit.op_class_0::SimdMultAcc            0      0.00%     80.97% # Class of committed instruction
system.cpu.commit.op_class_0::SimdShift           186      0.00%     80.97% # Class of committed instruction
system.cpu.commit.op_class_0::SimdShiftAcc            0      0.00%     80.97% # Class of committed instruction
system.cpu.commit.op_class_0::SimdSqrt              0      0.00%     80.97% # Class of committed instruction
system.cpu.commit.op_class_0::SimdFloatAdd            0      0.00%     80.97% # Class of committed instruction
system.cpu.commit.op_class_0::SimdFloatAlu            0      0.00%     80.97% # Class of committed instruction
system.cpu.commit.op_class_0::SimdFloatCmp            0      0.00%     80.97% # Class of committed instruction
system.cpu.commit.op_class_0::SimdFloatCvt            0      0.00%     80.97% # Class of committed instruction
system.cpu.commit.op_class_0::SimdFloatDiv            0      0.00%     80.97% # Class of committed instruction
system.cpu.commit.op_class_0::SimdFloatMisc            0      0.00%     80.97% # Class of committed instruction
system.cpu.commit.op_class_0::SimdFloatMult            0      0.00%     80.97% # Class of committed instruction
system.cpu.commit.op_class_0::SimdFloatMultAcc            0      0.00%     80.97% # Class of committed instruction
system.cpu.commit.op_class_0::SimdFloatSqrt            0      0.00%     80.97% # Class of committed instruction
system.cpu.commit.op_class_0::SimdAes               0      0.00%     80.97% # Class of committed instruction
system.cpu.commit.op_class_0::SimdAesMix            0      0.00%     80.97% # Class of committed instruction
system.cpu.commit.op_class_0::SimdSha1Hash            0      0.00%     80.97% # Class of committed instruction
system.cpu.commit.op_class_0::SimdSha1Hash2            0      0.00%     80.97% # Class of committed instruction
system.cpu.commit.op_class_0::SimdSha256Hash            0      0.00%     80.97% # Class of committed instruction
system.cpu.commit.op_class_0::SimdSha256Hash2            0      0.00%     80.97% # Class of committed instruction
system.cpu.commit.op_class_0::SimdShaSigma2            0      0.00%     80.97% # Class of committed instruction
system.cpu.commit.op_class_0::SimdShaSigma3            0      0.00%     80.97% # Class of committed instruction
system.cpu.commit.op_class_0::MemRead        18186510     11.50%     92.47% # Class of committed instruction
system.cpu.commit.op_class_0::MemWrite       11296614      7.15%     99.62% # Class of committed instruction
system.cpu.commit.op_class_0::FloatMemRead       300104      0.19%     99.81% # Class of committed instruction
system.cpu.commit.op_class_0::FloatMemWrite       300427      0.19%    100.00% # Class of committed instruction
system.cpu.commit.op_class_0::IprAccess             0      0.00%    100.00% # Class of committed instruction
system.cpu.commit.op_class_0::InstPrefetch            0      0.00%    100.00% # Class of committed instruction
system.cpu.commit.op_class_0::total         158095973                       # Class of committed instruction
system.cpu.commit.bw_lim_events               9793749                       # number cycles where commit BW limit reached
system.cpu.rob.rob_reads                    303553541                       # The number of ROB reads
system.cpu.rob.rob_writes                   341502569                       # The number of ROB writes
system.cpu.timesIdled                             450                       # Number of times that the entire CPU went into an idle state and unscheduled itself
system.cpu.idleCycles                           39800                       # Total number of cycles that the CPU has spent unscheduled due to idling
system.cpu.committedInsts                    85121742                       # Number of Instructions Simulated
system.cpu.committedOps                     158095973                       # Number of Ops (including micro ops) Simulated
system.cpu.cpi                               1.687721                       # CPI: Cycles Per Instruction
system.cpu.cpi_total                         1.687721                       # CPI: Total CPI of All Threads
system.cpu.ipc                               0.592515                       # IPC: Instructions Per Cycle
system.cpu.ipc_total                         0.592515                       # IPC: Total IPC of All Threads
system.cpu.int_regfile_reads                237118837                       # number of integer regfile reads
system.cpu.int_regfile_writes               128220300                       # number of integer regfile writes
system.cpu.fp_regfile_reads                    304268                       # number of floating regfile reads
system.cpu.fp_regfile_writes                   401754                       # number of floating regfile writes
system.cpu.cc_regfile_reads                 101129628                       # number of cc regfile reads
system.cpu.cc_regfile_writes                 51190392                       # number of cc regfile writes
system.cpu.misc_regfile_reads                71602429                       # number of misc regfile reads
system.cpu.dcache.tags.pwrStateResidencyTicks::UNDEFINED  71830861500                       # Cumulative time (in ticks) in various power states
system.cpu.dcache.tags.tagsinuse           511.691259                       # Cycle average of tags in use
system.cpu.dcache.tags.total_refs            29049275                       # Total number of references to valid blocks.
system.cpu.dcache.tags.sampled_refs            214291                       # Sample count of references to valid blocks.
system.cpu.dcache.tags.avg_refs            135.559940                       # Average number of references to valid blocks.
system.cpu.dcache.tags.warmup_cycle            169500                       # Cycle when the warmup percentage was hit.
system.cpu.dcache.tags.occ_blocks::.cpu.data   511.691259                       # Average occupied blocks per requestor
system.cpu.dcache.tags.occ_percent::.cpu.data     0.999397                       # Average percentage of cache occupancy
system.cpu.dcache.tags.occ_percent::total     0.999397                       # Average percentage of cache occupancy
system.cpu.dcache.tags.occ_task_id_blocks::1024          512                       # Occupied blocks per task id
system.cpu.dcache.tags.age_task_id_blocks_1024::0          111                       # Occupied blocks per task id
system.cpu.dcache.tags.age_task_id_blocks_1024::1          388                       # Occupied blocks per task id
system.cpu.dcache.tags.age_task_id_blocks_1024::3           10                       # Occupied blocks per task id
system.cpu.dcache.tags.age_task_id_blocks_1024::4            3                       # Occupied blocks per task id
system.cpu.dcache.tags.occ_task_id_percent::1024            1                       # Percentage of cache occupancy per task id
system.cpu.dcache.tags.tag_accesses         232627731                       # Number of tag accesses
system.cpu.dcache.tags.data_accesses        232627731                       # Number of data accesses
system.cpu.dcache.pwrStateResidencyTicks::UNDEFINED  71830861500                       # Cumulative time (in ticks) in various power states
system.cpu.dcache.ReadReq_hits::.cpu.data     17264452                       # number of ReadReq hits
system.cpu.dcache.ReadReq_hits::total        17264452                       # number of ReadReq hits
system.cpu.dcache.WriteReq_hits::.cpu.data     11525393                       # number of WriteReq hits
system.cpu.dcache.WriteReq_hits::total       11525393                       # number of WriteReq hits
system.cpu.dcache.demand_hits::.cpu.data     28789845                       # number of demand (read+write) hits
system.cpu.dcache.demand_hits::total         28789845                       # number of demand (read+write) hits
system.cpu.dcache.overall_hits::.cpu.data     28789845                       # number of overall hits
system.cpu.dcache.overall_hits::total        28789845                       # number of overall hits
system.cpu.dcache.ReadReq_misses::.cpu.data       190187                       # number of ReadReq misses
system.cpu.dcache.ReadReq_misses::total        190187                       # number of ReadReq misses
system.cpu.dcache.WriteReq_misses::.cpu.data        71648                       # number of WriteReq misses
system.cpu.dcache.WriteReq_misses::total        71648                       # number of WriteReq misses
system.cpu.dcache.demand_misses::.cpu.data       261835                       # number of demand (read+write) misses
system.cpu.dcache.demand_misses::total         261835                       # number of demand (read+write) misses
system.cpu.dcache.overall_misses::.cpu.data       261835                       # number of overall misses
system.cpu.dcache.overall_misses::total        261835                       # number of overall misses
system.cpu.dcache.ReadReq_miss_latency::.cpu.data   5117092000                       # number of ReadReq miss cycles
system.cpu.dcache.ReadReq_miss_latency::total   5117092000                       # number of ReadReq miss cycles
system.cpu.dcache.WriteReq_miss_latency::.cpu.data   3106650500                       # number of WriteReq miss cycles
system.cpu.dcache.WriteReq_miss_latency::total   3106650500                       # number of WriteReq miss cycles
system.cpu.dcache.demand_miss_latency::.cpu.data   8223742500                       # number of demand (read+write) miss cycles
system.cpu.dcache.demand_miss_latency::total   8223742500                       # number of demand (read+write) miss cycles
system.cpu.dcache.overall_miss_latency::.cpu.data   8223742500                       # number of overall miss cycles
system.cpu.dcache.overall_miss_latency::total   8223742500                       # number of overall miss cycles
system.cpu.dcache.ReadReq_accesses::.cpu.data     17454639                       # number of ReadReq accesses(hits+misses)
system.cpu.dcache.ReadReq_accesses::total     17454639                       # number of ReadReq accesses(hits+misses)
system.cpu.dcache.WriteReq_accesses::.cpu.data     11597041                       # number of WriteReq accesses(hits+misses)
system.cpu.dcache.WriteReq_accesses::total     11597041                       # number of WriteReq accesses(hits+misses)
system.cpu.dcache.demand_accesses::.cpu.data     29051680                       # number of demand (read+write) accesses
system.cpu.dcache.demand_accesses::total     29051680                       # number of demand (read+write) accesses
system.cpu.dcache.overall_accesses::.cpu.data     29051680                       # number of overall (read+write) accesses
system.cpu.dcache.overall_accesses::total     29051680                       # number of overall (read+write) accesses
system.cpu.dcache.ReadReq_miss_rate::.cpu.data     0.010896                       # miss rate for ReadReq accesses
system.cpu.dcache.ReadReq_miss_rate::total     0.010896                       # miss rate for ReadReq accesses
system.cpu.dcache.WriteReq_miss_rate::.cpu.data     0.006178                       # miss rate for WriteReq accesses
system.cpu.dcache.WriteReq_miss_rate::total     0.006178                       # miss rate for WriteReq accesses
system.cpu.dcache.demand_miss_rate::.cpu.data     0.009013                       # miss rate for demand accesses
system.cpu.dcache.demand_miss_rate::total     0.009013                       # miss rate for demand accesses
system.cpu.dcache.overall_miss_rate::.cpu.data     0.009013                       # miss rate for overall accesses
[...]
system.l3cache.tags.occ_percent::.cpu.inst     0.021244                       # Average percentage of cache occupancy
system.l3cache.tags.occ_percent::.cpu.data     0.464529                       # Average percentage of cache occupancy
system.l3cache.tags.occ_percent::total       0.485774                       # Average percentage of cache occupancy
system.l3cache.tags.occ_task_id_blocks::1024        27489                       # Occupied blocks per task id
system.l3cache.tags.age_task_id_blocks_1024::0           60                       # Occupied blocks per task id
system.l3cache.tags.age_task_id_blocks_1024::3         1248                       # Occupied blocks per task id
system.l3cache.tags.age_task_id_blocks_1024::4        26181                       # Occupied blocks per task id
system.l3cache.tags.occ_task_id_percent::1024     0.838898                       # Percentage of cache occupancy per task id
system.l3cache.tags.tag_accesses              4571171                       # Number of tag accesses
system.l3cache.tags.data_accesses             4571171                       # Number of data accesses
system.l3cache.pwrStateResidencyTicks::UNDEFINED  71830861500                       # Cumulative time (in ticks) in various power states
system.l3cache.WritebackDirty_hits::.writebacks       139422                       # number of WritebackDirty hits
system.l3cache.WritebackDirty_hits::total       139422                       # number of WritebackDirty hits
system.l3cache.ReadExReq_hits::.cpu.data            6                       # number of ReadExReq hits
system.l3cache.ReadExReq_hits::total                6                       # number of ReadExReq hits
system.l3cache.ReadSharedReq_hits::.cpu.inst           19                       # number of ReadSharedReq hits
system.l3cache.ReadSharedReq_hits::.cpu.data       117042                       # number of ReadSharedReq hits
system.l3cache.ReadSharedReq_hits::total       117061                       # number of ReadSharedReq hits
system.l3cache.demand_hits::.cpu.inst              19                       # number of demand (read+write) hits
system.l3cache.demand_hits::.cpu.data          117048                       # number of demand (read+write) hits
system.l3cache.demand_hits::total              117067                       # number of demand (read+write) hits
system.l3cache.overall_hits::.cpu.inst             19                       # number of overall hits
system.l3cache.overall_hits::.cpu.data         117048                       # number of overall hits
system.l3cache.overall_hits::total             117067                       # number of overall hits
system.l3cache.ReadExReq_misses::.cpu.data        26388                       # number of ReadExReq misses
system.l3cache.ReadExReq_misses::total          26388                       # number of ReadExReq misses
system.l3cache.ReadSharedReq_misses::.cpu.inst          821                       # number of ReadSharedReq misses
system.l3cache.ReadSharedReq_misses::.cpu.data          282                       # number of ReadSharedReq misses
system.l3cache.ReadSharedReq_misses::total         1103                       # number of ReadSharedReq misses
system.l3cache.demand_misses::.cpu.inst           821                       # number of demand (read+write) misses
system.l3cache.demand_misses::.cpu.data         26670                       # number of demand (read+write) misses
system.l3cache.demand_misses::total             27491                       # number of demand (read+write) misses
system.l3cache.overall_misses::.cpu.inst          821                       # number of overall misses
system.l3cache.overall_misses::.cpu.data        26670                       # number of overall misses
system.l3cache.overall_misses::total            27491                       # number of overall misses
system.l3cache.ReadExReq_miss_latency::.cpu.data   2498597500                       # number of ReadExReq miss cycles
system.l3cache.ReadExReq_miss_latency::total   2498597500                       # number of ReadExReq miss cycles
system.l3cache.ReadSharedReq_miss_latency::.cpu.inst     64947000                       # number of ReadSharedReq miss cycles
system.l3cache.ReadSharedReq_miss_latency::.cpu.data     26117000                       # number of ReadSharedReq miss cycles
system.l3cache.ReadSharedReq_miss_latency::total     91064000                       # number of ReadSharedReq miss cycles
system.l3cache.demand_miss_latency::.cpu.inst     64947000                       # number of demand (read+write) miss cycles
system.l3cache.demand_miss_latency::.cpu.data   2524714500                       # number of demand (read+write) miss cycles
system.l3cache.demand_miss_latency::total   2589661500                       # number of demand (read+write) miss cycles
system.l3cache.overall_miss_latency::.cpu.inst     64947000                       # number of overall miss cycles
system.l3cache.overall_miss_latency::.cpu.data   2524714500                       # number of overall miss cycles
system.l3cache.overall_miss_latency::total   2589661500                       # number of overall miss cycles
system.l3cache.WritebackDirty_accesses::.writebacks       139422                       # number of WritebackDirty accesses(hits+misses)
system.l3cache.WritebackDirty_accesses::total       139422                       # number of WritebackDirty accesses(hits+misses)
system.l3cache.ReadExReq_accesses::.cpu.data        26394                       # number of ReadExReq accesses(hits+misses)
system.l3cache.ReadExReq_accesses::total        26394                       # number of ReadExReq accesses(hits+misses)
system.l3cache.ReadSharedReq_accesses::.cpu.inst          840                       # number of ReadSharedReq accesses(hits+misses)
system.l3cache.ReadSharedReq_accesses::.cpu.data       117324                       # number of ReadSharedReq accesses(hits+misses)
system.l3cache.ReadSharedReq_accesses::total       118164                       # number of ReadSharedReq accesses(hits+misses)
system.l3cache.demand_accesses::.cpu.inst          840                       # number of demand (read+write) accesses
system.l3cache.demand_accesses::.cpu.data       143718                       # number of demand (read+write) accesses
system.l3cache.demand_accesses::total          144558                       # number of demand (read+write) accesses
system.l3cache.overall_accesses::.cpu.inst          840                       # number of overall (read+write) accesses
system.l3cache.overall_accesses::.cpu.data       143718                       # number of overall (read+write) accesses
system.l3cache.overall_accesses::total         144558                       # number of overall (read+write) accesses
system.l3cache.ReadExReq_miss_rate::.cpu.data     0.999773                       # miss rate for ReadExReq accesses
system.l3cache.ReadExReq_miss_rate::total     0.999773                       # miss rate for ReadExReq accesses
system.l3cache.ReadSharedReq_miss_rate::.cpu.inst     0.977381                       # miss rate for ReadSharedReq accesses
system.l3cache.ReadSharedReq_miss_rate::.cpu.data     0.002404                       # miss rate for ReadSharedReq accesses
system.l3cache.ReadSharedReq_miss_rate::total     0.009334                       # miss rate for ReadSharedReq accesses
system.l3cache.demand_miss_rate::.cpu.inst     0.977381                       # miss rate for demand accesses
system.l3cache.demand_miss_rate::.cpu.data     0.185572                       # miss rate for demand accesses
system.l3cache.demand_miss_rate::total       0.190173                       # miss rate for demand accesses
system.l3cache.overall_miss_rate::.cpu.inst     0.977381                       # miss rate for overall accesses
system.l3cache.overall_miss_rate::.cpu.data     0.185572                       # miss rate for overall accesses
system.l3cache.overall_miss_rate::total      0.190173                       # miss rate for overall accesses
system.l3cache.ReadExReq_avg_miss_latency::.cpu.data 94686.884190                       # average ReadExReq miss latency
system.l3cache.ReadExReq_avg_miss_latency::total 94686.884190                       # average ReadExReq miss latency
system.l3cache.ReadSharedReq_avg_miss_latency::.cpu.inst 79107.186358                       # average ReadSharedReq miss latency
system.l3cache.ReadSharedReq_avg_miss_latency::.cpu.data 92613.475177                       # average ReadSharedReq miss latency
system.l3cache.ReadSharedReq_avg_miss_latency::total 82560.290118                       # average ReadSharedReq miss latency
system.l3cache.demand_avg_miss_latency::.cpu.inst 79107.186358                       # average overall miss latency
system.l3cache.demand_avg_miss_latency::.cpu.data 94664.960630                       # average overall miss latency
system.l3cache.demand_avg_miss_latency::total 94200.338293                       # average overall miss latency
system.l3cache.overall_avg_miss_latency::.cpu.inst 79107.186358                       # average overall miss latency
system.l3cache.overall_avg_miss_latency::.cpu.data 94664.960630                       # average overall miss latency
system.l3cache.overall_avg_miss_latency::total 94200.338293                       # average overall miss latency
system.l3cache.blocked_cycles::no_mshrs             0                       # number of cycles access was blocked
system.l3cache.blocked_cycles::no_targets            0                       # number of cycles access was blocked
system.l3cache.blocked::no_mshrs                    0                       # number of cycles access was blocked
system.l3cache.blocked::no_targets                  0                       # number of cycles access was blocked
system.l3cache.avg_blocked_cycles::no_mshrs          nan                       # average number of cycles each access was blocked
system.l3cache.avg_blocked_cycles::no_targets          nan                       # average number of cycles each access was blocked
system.l3cache.ReadExReq_mshr_misses::.cpu.data        26388                       # number of ReadExReq MSHR misses
system.l3cache.ReadExReq_mshr_misses::total        26388                       # number of ReadExReq MSHR misses
system.l3cache.ReadSharedReq_mshr_misses::.cpu.inst          821                       # number of ReadSharedReq MSHR misses
system.l3cache.ReadSharedReq_mshr_misses::.cpu.data          282                       # number of ReadSharedReq MSHR misses
system.l3cache.ReadSharedReq_mshr_misses::total         1103                       # number of ReadSharedReq MSHR misses
system.l3cache.demand_mshr_misses::.cpu.inst          821                       # number of demand (read+write) MSHR misses
system.l3cache.demand_mshr_misses::.cpu.data        26670                       # number of demand (read+write) MSHR misses
system.l3cache.demand_mshr_misses::total        27491                       # number of demand (read+write) MSHR misses
system.l3cache.overall_mshr_misses::.cpu.inst          821                       # number of overall MSHR misses
system.l3cache.overall_mshr_misses::.cpu.data        26670                       # number of overall MSHR misses
system.l3cache.overall_mshr_misses::total        27491                       # number of overall MSHR misses
system.l3cache.ReadExReq_mshr_miss_latency::.cpu.data   2445821500                       # number of ReadExReq MSHR miss cycles
system.l3cache.ReadExReq_mshr_miss_latency::total   2445821500                       # number of ReadExReq MSHR miss cycles
system.l3cache.ReadSharedReq_mshr_miss_latency::.cpu.inst     63305000                       # number of ReadSharedReq MSHR miss cycles
system.l3cache.ReadSharedReq_mshr_miss_latency::.cpu.data     25553000                       # number of ReadSharedReq MSHR miss cycles
system.l3cache.ReadSharedReq_mshr_miss_latency::total     88858000                       # number of ReadSharedReq MSHR miss cycles
system.l3cache.demand_mshr_miss_latency::.cpu.inst     63305000                       # number of demand (read+write) MSHR miss cycles
system.l3cache.demand_mshr_miss_latency::.cpu.data   2471374500                       # number of demand (read+write) MSHR miss cycles
system.l3cache.demand_mshr_miss_latency::total   2534679500                       # number of demand (read+write) MSHR miss cycles
system.l3cache.overall_mshr_miss_latency::.cpu.inst     63305000                       # number of overall MSHR miss cycles
system.l3cache.overall_mshr_miss_latency::.cpu.data   2471374500                       # number of overall MSHR miss cycles
system.l3cache.overall_mshr_miss_latency::total   2534679500                       # number of overall MSHR miss cycles
system.l3cache.ReadExReq_mshr_miss_rate::.cpu.data     0.999773                       # mshr miss rate for ReadExReq accesses
system.l3cache.ReadExReq_mshr_miss_rate::total     0.999773                       # mshr miss rate for ReadExReq accesses
system.l3cache.ReadSharedReq_mshr_miss_rate::.cpu.inst     0.977381                       # mshr miss rate for ReadSharedReq accesses
system.l3cache.ReadSharedReq_mshr_miss_rate::.cpu.data     0.002404                       # mshr miss rate for ReadSharedReq accesses
system.l3cache.ReadSharedReq_mshr_miss_rate::total     0.009334                       # mshr miss rate for ReadSharedReq accesses
system.l3cache.demand_mshr_miss_rate::.cpu.inst     0.977381                       # mshr miss rate for demand accesses
system.l3cache.demand_mshr_miss_rate::.cpu.data     0.185572                       # mshr miss rate for demand accesses
system.l3cache.demand_mshr_miss_rate::total     0.190173                       # mshr miss rate for demand accesses
system.l3cache.overall_mshr_miss_rate::.cpu.inst     0.977381                       # mshr miss rate for overall accesses
system.l3cache.overall_mshr_miss_rate::.cpu.data     0.185572                       # mshr miss rate for overall accesses
system.l3cache.overall_mshr_miss_rate::total     0.190173                       # mshr miss rate for overall accesses
system.l3cache.ReadExReq_avg_mshr_miss_latency::.cpu.data 92686.884190                       # average ReadExReq mshr miss latency
system.l3cache.ReadExReq_avg_mshr_miss_latency::total 92686.884190                       # average ReadExReq mshr miss latency
system.l3cache.ReadSharedReq_avg_mshr_miss_latency::.cpu.inst 77107.186358                       # average ReadSharedReq mshr miss latency
system.l3cache.ReadSharedReq_avg_mshr_miss_latency::.cpu.data 90613.475177                       # average ReadSharedReq mshr miss latency
system.l3cache.ReadSharedReq_avg_mshr_miss_latency::total 80560.290118                       # average ReadSharedReq mshr miss latency
system.l3cache.demand_avg_mshr_miss_latency::.cpu.inst 77107.186358                       # average overall mshr miss latency
system.l3cache.demand_avg_mshr_miss_latency::.cpu.data 92664.960630                       # average overall mshr miss latency
system.l3cache.demand_avg_mshr_miss_latency::total 92200.338293                       # average overall mshr miss latency
system.l3cache.overall_avg_mshr_miss_latency::.cpu.inst 77107.186358                       # average overall mshr miss latency
system.l3cache.overall_avg_mshr_miss_latency::.cpu.data 92664.960630                       # average overall mshr miss latency
system.l3cache.overall_avg_mshr_miss_latency::total 92200.338293                       # average overall mshr miss latency
system.l3cache.replacements                         2                       # number of replacements
system.membus.snoop_filter.tot_requests         27492                       # Total number of requests made to the snoop filter.
system.membus.snoop_filter.hit_single_requests            1                       # Number of requests hitting in the snoop filter with a single holder of the requested data.
system.membus.snoop_filter.hit_multi_requests            0                       # Number of requests hitting in the snoop filter with multiple (>1) holders of the requested data.
system.membus.snoop_filter.tot_snoops               0                       # Total number of snoops made to the snoop filter.
system.membus.snoop_filter.hit_single_snoops            0                       # Number of snoops hitting in the snoop filter with a single holder of the requested data.
system.membus.snoop_filter.hit_multi_snoops            0                       # Number of snoops hitting in the snoop filter with multiple (>1) holders of the requested data.
system.membus.pwrStateResidencyTicks::UNDEFINED  71830861500                       # Cumulative time (in ticks) in various power states
system.membus.trans_dist::ReadResp               1103                       # Transaction distribution
system.membus.trans_dist::CleanEvict                1                       # Transaction distribution
system.membus.trans_dist::ReadExReq             26388                       # Transaction distribution
system.membus.trans_dist::ReadExResp            26388                       # Transaction distribution
system.membus.trans_dist::ReadSharedReq          1103                       # Transaction distribution
system.membus.pkt_count_system.l3cache.mem_side::system.mem_ctrl.port        54983                       # Packet count per connected master and slave (bytes)
system.membus.pkt_count_system.l3cache.mem_side::total        54983                       # Packet count per connected master and slave (bytes)
system.membus.pkt_count::total                  54983                       # Packet count per connected master and slave (bytes)
system.membus.pkt_size_system.l3cache.mem_side::system.mem_ctrl.port      1759424                       # Cumulative packet size per connected master and slave (bytes)
system.membus.pkt_size_system.l3cache.mem_side::total      1759424                       # Cumulative packet size per connected master and slave (bytes)
system.membus.pkt_size::total                 1759424                       # Cumulative packet size per connected master and slave (bytes)
system.membus.snoops                                0                       # Total snoops (count)
system.membus.snoopTraffic                          0                       # Total snoop traffic (bytes)
system.membus.snoop_fanout::samples             27491                       # Request fanout histogram
system.membus.snoop_fanout::mean                    0                       # Request fanout histogram
system.membus.snoop_fanout::stdev                   0                       # Request fanout histogram
system.membus.snoop_fanout::underflows              0      0.00%      0.00% # Request fanout histogram
system.membus.snoop_fanout::0                   27491    100.00%    100.00% # Request fanout histogram
system.membus.snoop_fanout::1                       0      0.00%    100.00% # Request fanout histogram
system.membus.snoop_fanout::overflows               0      0.00%    100.00% # Request fanout histogram
system.membus.snoop_fanout::min_value               0                       # Request fanout histogram
system.membus.snoop_fanout::max_value               0                       # Request fanout histogram
system.membus.snoop_fanout::total               27491                       # Request fanout histogram
system.membus.reqLayer0.occupancy            13746000                       # Layer occupancy (ticks)
system.membus.reqLayer0.utilization               0.0                       # Layer utilization (%)
system.membus.respLayer0.occupancy           73893750                       # Layer occupancy (ticks)
system.membus.respLayer0.utilization              0.1                       # Layer utilization (%)

---------- End Simulation Statistics   ----------