
---------- Begin Simulation Statistics ----------
sim_seconds                                  0.053042                       # Number of seconds simulated
sim_ticks                                 53042235500                       # Number of ticks simulated
final_tick                                53042235500                       # Number of ticks from beginning of simulation (restored from checkpoints and never reset)
sim_freq                                 1000000000000                       # Frequency of simulated ticks
host_inst_rate                                 302797                       # Simulator instruction rate (inst/s)
host_op_rate                                   562383                       # Simulator op (including micro ops) rate (op/s)
host_tick_rate                              188683250                       # Simulator tick rate (ticks/s)
host_mem_usage                                 661368                       # Number of bytes of host memory used
host_seconds                                   281.12                       # Real time elapsed on the host
sim_insts                                    85121742                       # Number of instructions simulated
sim_ops                                     158095973                       # Number of ops (including micro ops) simulated
system.clk_domain.voltage_domain.voltage            1                       # Voltage in Volts
system.clk_domain.clock                           500                       # Clock period in ticks
system.mem_ctrl.pwrStateResidencyTicks::UNDEFINED  53042235500                       # Cumulative time (in ticks) in various power states
system.mem_ctrl.bytes_read::.cpu.inst           50496                       # Number of bytes read from this memory
system.mem_ctrl.bytes_read::.cpu.data         1706880                       # Number of bytes read from this memory
system.mem_ctrl.bytes_read::total             1757376                       # Number of bytes read from this memory
system.mem_ctrl.bytes_inst_read::.cpu.inst        50496                       # Number of instructions bytes read from this memory
system.mem_ctrl.bytes_inst_read::total          50496                       # Number of instructions bytes read from this memory
system.mem_ctrl.num_reads::.cpu.inst              789                       # Number of read requests responded to by this memory
system.mem_ctrl.num_reads::.cpu.data            26670                       # Number of read requests responded to by this memory
system.mem_ctrl.num_reads::total                27459                       # Number of read requests responded to by this memory
system.mem_ctrl.bw_read::.cpu.inst             951996                       # Total read bandwidth from this memory (bytes/s)
system.mem_ctrl.bw_read::.cpu.data           32179639                       # Total read bandwidth from this memory (bytes/s)
system.mem_ctrl.bw_read::total               33131635                       # Total read bandwidth from this memory (bytes/s)
system.mem_ctrl.bw_inst_read::.cpu.inst        951996                       # Instruction read bandwidth from this memory (bytes/s)
system.mem_ctrl.bw_inst_read::total            951996                       # Instruction read bandwidth from this memory (bytes/s)
system.mem_ctrl.bw_total::.cpu.inst            951996                       # Total bandwidth to/from this memory (bytes/s)
system.mem_ctrl.bw_total::.cpu.data          32179639                       # Total bandwidth to/from this memory (bytes/s)
system.mem_ctrl.bw_total::total              33131635                       # Total bandwidth to/from this memory (bytes/s)
system.mem_ctrl.avgPriority_.cpu.inst::samples       789.00                       # Average QoS priority value for accepted requests
system.mem_ctrl.avgPriority_.cpu.data::samples     26670.00                       # Average QoS priority value for accepted requests
system.mem_ctrl.priorityMinLatency       0.000000018750                       # per QoS priority minimum request to response latency (s)
system.mem_ctrl.priorityMaxLatency       0.000001101750                       # per QoS priority maximum request to response latency (s)
system.mem_ctrl.numReadWriteTurnArounds             0                       # Number of turnarounds from READ to WRITE
system.mem_ctrl.numWriteReadTurnArounds             0                       # Number of turnarounds from WRITE to READ
system.mem_ctrl.numStayReadState                60991                       # Number of times bus staying in READ state
system.mem_ctrl.numStayWriteState                   0                       # Number of times bus staying in WRITE state
system.mem_ctrl.readReqs                        27459                       # Number of read requests accepted
system.mem_ctrl.writeReqs                           0                       # Number of write requests accepted
system.mem_ctrl.readBursts                      27459                       # Number of DRAM read bursts, including those serviced by the write queue
system.mem_ctrl.writeBursts                         0                       # Number of DRAM write bursts, including those merged in the write queue
system.mem_ctrl.bytesReadDRAM                 1757376                       # Total number of bytes read from DRAM
system.mem_ctrl.bytesReadWrQ                        0                       # Total number of bytes read from write queue
system.mem_ctrl.bytesWritten                        0                       # Total number of bytes written to DRAM
system.mem_ctrl.bytesReadSys                  1757376                       # Total read bytes from the system interface side
system.mem_ctrl.bytesWrittenSys                     0                       # Total written bytes from the system interface side
system.mem_ctrl.servicedByWrQ                       0                       # Number of DRAM read bursts serviced by the write queue
system.mem_ctrl.mergedWrBursts                      0                       # Number of DRAM write bursts merged with an existing one
system.mem_ctrl.neitherReadNorWriteReqs             0                       # Number of requests that are neither read nor write
system.mem_ctrl.perBankRdBursts::0               1862                       # Per bank write bursts
system.mem_ctrl.perBankRdBursts::1               1675                       # Per bank write bursts
system.mem_ctrl.perBankRdBursts::2               1656                       # Per bank write bursts
system.mem_ctrl.perBankRdBursts::3               1678                       # Per bank write bursts
system.mem_ctrl.perBankRdBursts::4               1691                       # Per bank write bursts
system.mem_ctrl.perBankRdBursts::5               1678                       # Per bank write bursts
system.mem_ctrl.perBankRdBursts::6               1735                       # Per bank write bursts
system.mem_ctrl.perBankRdBursts::7               1763                       # Per bank write bursts
system.mem_ctrl.perBankRdBursts::8               1696                       # Per bank write bursts
system.mem_ctrl.perBankRdBursts::9               1589                       # Per bank write bursts
system.mem_ctrl.perBankRdBursts::10              1677                       # Per bank write bursts
system.mem_ctrl.perBankRdBursts::11              1652                       # Per bank write bursts
system.mem_ctrl.perBankRdBursts::12              1670                       # Per bank write bursts
system.mem_ctrl.perBankRdBursts::13              1816                       # Per bank write bursts
system.mem_ctrl.perBankRdBursts::14              1854                       # Per bank write bursts
system.mem_ctrl.perBankRdBursts::15              1767                       # Per bank write bursts
system.mem_ctrl.perBankWrBursts::0                  0                       # Per bank write bursts
system.mem_ctrl.perBankWrBursts::1                  0                       # Per bank write bursts
system.mem_ctrl.perBankWrBursts::2                  0                       # Per bank write bursts
system.mem_ctrl.perBankWrBursts::3                  0                       # Per bank write bursts
system.mem_ctrl.perBankWrBursts::4                  0                       # Per bank write bursts
system.mem_ctrl.perBankWrBursts::5                  0                       # Per bank write bursts
system.mem_ctrl.perBankWrBursts::6                  0                       # Per bank write bursts
system.mem_ctrl.perBankWrBursts::7                  0                       # Per bank write bursts
system.mem_ctrl.perBankWrBursts::8                  0                       # Per bank write bursts
system.mem_ctrl.perBankWrBursts::9                  0                       # Per bank write bursts
system.mem_ctrl.perBankWrBursts::10                 0                       # Per bank write bursts
system.mem_ctrl.perBankWrBursts::11                 0                       # Per bank write bursts
system.mem_ctrl.perBankWrBursts::12                 0                       # Per bank write bursts
system.mem_ctrl.perBankWrBursts::13                 0                       # Per bank write bursts
system.mem_ctrl.perBankWrBursts::14                 0                       # Per bank write bursts
system.mem_ctrl.perBankWrBursts::15                 0                       # Per bank write bursts
system.mem_ctrl.numRdRetry                          0                       # Number of times read queue was full causing retry
system.mem_ctrl.numWrRetry                          0                       # Number of times write queue was full causing retry
system.mem_ctrl.totGap                    53042152000                       # Total gap between requests
system.mem_ctrl.readPktSize::0                      0                       # Read request sizes (log2)
system.mem_ctrl.readPktSize::1                      0                       # Read request sizes (log2)
system.mem_ctrl.readPktSize::2                      0                       # Read request sizes (log2)
system.mem_ctrl.readPktSize::3                      0                       # Read request sizes (log2)
system.mem_ctrl.readPktSize::4                      0                       # Read request sizes (log2)
system.mem_ctrl.readPktSize::5                      0                       # Read request sizes (log2)
system.mem_ctrl.readPktSize::6                  27459                       # Read request sizes (log2)
system.mem_ctrl.writePktSize::0                     0                       # Write request sizes (log2)
system.mem_ctrl.writePktSize::1                     0                       # Write request sizes (log2)
system.mem_ctrl.writePktSize::2                     0                       # Write request sizes (log2)
system.mem_ctrl.writePktSize::3                     0                       # Write request sizes (log2)
system.mem_ctrl.writePktSize::4                     0                       # Write request sizes (log2)
system.mem_ctrl.writePktSize::5                     0                       # Write request sizes (log2)
system.mem_ctrl.writePktSize::6                     0                       # Write request sizes (log2)
system.mem_ctrl.rdQLenPdf::0                    27086                       # What read queue length does an incoming req see
system.mem_ctrl.rdQLenPdf::1                      305                       # What read queue length does an incoming req see
system.mem_ctrl.rdQLenPdf::2                       60                       # What read queue length does an incoming req see
system.mem_ctrl.rdQLenPdf::3                        6                       # What read queue length does an incoming req see
system.mem_ctrl.rdQLenPdf::4                        2                       # What read queue length does an incoming req see
system.mem_ctrl.rdQLenPdf::5                        0                       # What read queue length does an incoming req see
system.mem_ctrl.rdQLenPdf::6                        0                       # What read queue length does an incoming req see
system.mem_ctrl.rdQLenPdf::7                        0                       # What read queue length does an incoming req see
system.mem_ctrl.rdQLenPdf::8                        0                       # What read queue length does an incoming req see
system.mem_ctrl.rdQLenPdf::9                        0                       # What read queue length does an incoming req see
system.mem_ctrl.rdQLenPdf::10                       0                       # What read queue length does an incoming req see
system.mem_ctrl.rdQLenPdf::11                       0                       # What read queue length does an incoming req see
system.mem_ctrl.rdQLenPdf::12                       0                       # What read queue length does an incoming req see
system.mem_ctrl.rdQLenPdf::13                       0                       # What read queue length does an incoming req see
system.mem_ctrl.rdQLenPdf::14                       0                       # What read queue length does an incoming req see
system.mem_ctrl.rdQLenPdf::15                       0                       # What read queue length does an incoming req see
system.mem_ctrl.rdQLenPdf::16                       0                       # What read queue length does an incoming req see
system.mem_ctrl.rdQLenPdf::17                       0                       # What read queue length does an incoming req see
system.mem_ctrl.rdQLenPdf::18                       0                       # What read queue length does an incoming req see
system.mem_ctrl.rdQLenPdf::19                       0                       # What read queue length does an incoming req see
system.mem_ctrl.rdQLenPdf::20                       0                       # What read queue length does an incoming req see
system.mem_ctrl.rdQLenPdf::21                       0                       # What read queue length does an incoming req see
system.mem_ctrl.rdQLenPdf::22                       0                       # What read queue length does an incoming req see
system.mem_ctrl.rdQLenPdf::23                       0                       # What read queue length does an incoming req see
system.mem_ctrl.rdQLenPdf::24                       0                       # What read queue length does an incoming req see
system.mem_ctrl.rdQLenPdf::25                       0                       # What read queue length does an incoming req see
system.mem_ctrl.rdQLenPdf::26                       0                       # What read queue length does an incoming req see
system.mem_ctrl.rdQLenPdf::27                       0                       # What read queue length does an incoming req see
system.mem_ctrl.rdQLenPdf::28                       0                       # What read queue length does an incoming req see
system.mem_ctrl.rdQLenPdf::29                       0                       # What read queue length does an incoming req see
system.mem_ctrl.rdQLenPdf::30                       0                       # What read queue length does an incoming req see
system.mem_ctrl.rdQLenPdf::31                       0                       # What read queue length does an incoming req see
system.mem_ctrl.wrQLenPdf::0                        0                       # What write queue length does an incoming req see
system.mem_ctrl.wrQLenPdf::1                        0                       # What write queue length does an incoming req see
system.mem_ctrl.wrQLenPdf::2                        0                       # What write queue length does an incoming req see
system.mem_ctrl.wrQLenPdf::3                        0                       # What write queue length does an incoming req see
system.mem_ctrl.wrQLenPdf::4                        0                       # What write queue length does an incoming req see
system.mem_ctrl.wrQLenPdf::5                        0                       # What write queue length does an incoming req see
system.mem_ctrl.wrQLenPdf::6                        0                       # What write queue length does an incoming req see
system.mem_ctrl.wrQLenPdf::7                        0                       # What write queue length does an incoming req see
system.mem_ctrl.wrQLenPdf::8                        0                       # What write queue length does an incoming req see
system.mem_ctrl.wrQLenPdf::9                        0                       # What write queue length does an incoming req see
system.mem_ctrl.wrQLenPdf::10                       0                       # What write queue length does an incoming req see
system.mem_ctrl.wrQLenPdf::11                       0                       # What write queue length does an incoming req see
system.mem_ctrl.wrQLenPdf::12                       0                       # What write queue length does an incoming req see
system.mem_ctrl.wrQLenPdf::13                       0                       # What write queue length does an incoming req see
system.mem_ctrl.wrQLenPdf::14                       0                       # What write queue length does an incoming req see
system.mem_ctrl.wrQLenPdf::15                       0                       # What write queue length does an incoming req see
system.mem_ctrl.wrQLenPdf::16                       0                       # What write queue length does an incoming req see
system.mem_ctrl.wrQLenPdf::17                       0                       # What write queue length does an incoming req see
system.mem_ctrl.wrQLenPdf::18                       0                       # What write queue length does an incoming req see
system.mem_ctrl.wrQLenPdf::19                       0                       # What write queue length does an incoming req see
system.mem_ctrl.wrQLenPdf::20                       0                       # What write queue length does an incoming req see
system.mem_ctrl.wrQLenPdf::21                       0                       # What write queue length does an incoming req see
system.mem_ctrl.wrQLenPdf::22                       0                       # What write queue length does an incoming req see
system.mem_ctrl.wrQLenPdf::23                       0                       # What write queue length does an incoming req see
system.mem_ctrl.wrQLenPdf::24                       0                       # What write queue length does an incoming req see
system.mem_ctrl.wrQLenPdf::25                       0                       # What write queue length does an incoming req see
system.mem_ctrl.wrQLenPdf::26                       0                       # What write queue length does an incoming req see
system.mem_ctrl.wrQLenPdf::27                       0                       # What write queue length does an incoming req see
system.mem_ctrl.wrQLenPdf::28                       0                       # What write queue length does an incoming req see
system.mem_ctrl.wrQLenPdf::29                       0                       # What write queue length does an incoming req see
system.mem_ctrl.wrQLenPdf::30                       0                       # What write queue length does an incoming req see
system.mem_ctrl.wrQLenPdf::31                       0                       # What write queue length does an incoming req see
system.mem_ctrl.wrQLenPdf::32                       0                       # What write queue length does an incoming req see
system.mem_ctrl.wrQLenPdf::33                       0                       # What write queue length does an incoming req see
system.mem_ctrl.wrQLenPdf::34                       0                       # What write queue length does an incoming req see
system.mem_ctrl.wrQLenPdf::35                       0                       # What write queue length does an incoming req see
system.mem_ctrl.wrQLenPdf::36                       0                       # What write queue length does an incoming req see
system.mem_ctrl.wrQLenPdf::37                       0                       # What write queue length does an incoming req see
system.mem_ctrl.wrQLenPdf::38                       0                       # What write queue length does an incoming req see
system.mem_ctrl.wrQLenPdf::39                       0                       # What write queue length does an incoming req see
system.mem_ctrl.wrQLenPdf::40                       0                       # What write queue length does an incoming req see
system.mem_ctrl.wrQLenPdf::41                       0                       # What write queue length does an incoming req see
system.mem_ctrl.wrQLenPdf::42                       0                       # What write queue length does an incoming req see
system.mem_ctrl.wrQLenPdf::43                       0                       # What write queue length does an incoming req see
system.mem_ctrl.wrQLenPdf::44                       0                       # What write queue length does an incoming req see
system.mem_ctrl.wrQLenPdf::45                       0                       # What write queue length does an incoming req see
system.mem_ctrl.wrQLenPdf::46                       0                       # What write queue length does an incoming req see
system.mem_ctrl.wrQLenPdf::47                       0                       # What write queue length does an incoming req see
system.mem_ctrl.wrQLenPdf::48                       0                       # What write queue length does an incoming req see
system.mem_ctrl.wrQLenPdf::49                       0                       # What write queue length does an incoming req see
system.mem_ctrl.wrQLenPdf::50                       0                       # What write queue length does an incoming req see
system.mem_ctrl.wrQLenPdf::51                       0                       # What write queue length does an incoming req see
system.mem_ctrl.wrQLenPdf::52                       0                       # What write queue length does an incoming req see
system.mem_ctrl.wrQLenPdf::53                       0                       # What write queue length does an incoming req see
system.mem_ctrl.wrQLenPdf::54                       0                       # What write queue length does an incoming req see
system.mem_ctrl.wrQLenPdf::55                       0                       # What write queue length does an incoming req see
system.mem_ctrl.wrQLenPdf::56                       0                       # What write queue length does an incoming req see
system.mem_ctrl.wrQLenPdf::57                       0                       # What write queue length does an incoming req see
system.mem_ctrl.wrQLenPdf::58                       0                       # What write queue length does an incoming req see
system.mem_ctrl.wrQLenPdf::59                       0                       # What write queue length does an incoming req see
system.mem_ctrl.wrQLenPdf::60                       0                       # What write queue length does an incoming req see
system.mem_ctrl.wrQLenPdf::61                       0                       # What write queue length does an incoming req see
system.mem_ctrl.wrQLenPdf::62                       0                       # What write queue length does an incoming req see
system.mem_ctrl.wrQLenPdf::63                       0                       # What write queue length does an incoming req see
system.mem_ctrl.bytesPerActivate::samples         6566                       # Bytes accessed per row activation
system.mem_ctrl.bytesPerActivate::mean     267.335973                       # Bytes accessed per row activation
system.mem_ctrl.bytesPerActivate::gmean    250.652804                       # Bytes accessed per row activation
system.mem_ctrl.bytesPerActivate::stdev    101.600548                       # Bytes accessed per row activation
system.mem_ctrl.bytesPerActivate::0-127           335      5.10%      5.10% # Bytes accessed per row activation
system.mem_ctrl.bytesPerActivate::128-255          298      4.54%      9.64% # Bytes accessed per row activation
system.mem_ctrl.bytesPerActivate::256-383         5795     88.26%     97.90% # Bytes accessed per row activation
system.mem_ctrl.bytesPerActivate::384-511           36      0.55%     98.45% # Bytes accessed per row activation
system.mem_ctrl.bytesPerActivate::512-639           17      0.26%     98.71% # Bytes accessed per row activation
system.mem_ctrl.bytesPerActivate::640-767            9      0.14%     98.84% # Bytes accessed per row activation
system.mem_ctrl.bytesPerActivate::768-895            6      0.09%     98.93% # Bytes accessed per row activation
system.mem_ctrl.bytesPerActivate::896-1023            5      0.08%     99.01% # Bytes accessed per row activation
system.mem_ctrl.bytesPerActivate::1024-1151           65      0.99%    100.00% # Bytes accessed per row activation
system.mem_ctrl.bytesPerActivate::total          6566                       # Bytes accessed per row activation
system.mem_ctrl.masterReadBytes::.cpu.inst        50496                       # Per-master bytes read from memory
system.mem_ctrl.masterReadBytes::.cpu.data      1706880                       # Per-master bytes read from memory
system.mem_ctrl.masterReadRate::.cpu.inst 951996.074901481159                       # Per-master bytes read from memory rate (Bytes/sec)
system.mem_ctrl.masterReadRate::.cpu.data 32179639.185833334923                       # Per-master bytes read from memory rate (Bytes/sec)
system.mem_ctrl.masterReadAccesses::.cpu.inst          789                       # Per-master read serviced memory accesses
system.mem_ctrl.masterReadAccesses::.cpu.data        26670                       # Per-master read serviced memory accesses
system.mem_ctrl.masterReadTotalLat::.cpu.inst     32156250                       # Per-master read total memory access latency
system.mem_ctrl.masterReadTotalLat::.cpu.data    859581250                       # Per-master read total memory access latency
system.mem_ctrl.masterReadAvgLat::.cpu.inst     40755.70                       # Per-master read average memory access latency
system.mem_ctrl.masterReadAvgLat::.cpu.data     32230.27                       # Per-master read average memory access latency
system.mem_ctrl.totQLat                     376881250                       # Total ticks spent queuing
system.mem_ctrl.totMemAccLat                891737500                       # Total ticks spent from burst creation until serviced by the DRAM
system.mem_ctrl.totBusLat                   137295000                       # Total ticks spent in databus transfers
system.mem_ctrl.avgQLat                      13725.24                       # Average queueing delay per DRAM burst
system.mem_ctrl.avgBusLat                     5000.00                       # Average bus latency per DRAM burst
system.mem_ctrl.avgMemAccLat                 32475.24                       # Average memory access latency per DRAM burst
system.mem_ctrl.avgRdBW                         33.13                       # Average DRAM read bandwidth in MiByte/s
system.mem_ctrl.avgWrBW                          0.00                       # Average achieved write bandwidth in MiByte/s
system.mem_ctrl.avgRdBWSys                      33.13                       # Average system read bandwidth in MiByte/s
system.mem_ctrl.avgWrBWSys                       0.00                       # Average system write bandwidth in MiByte/s
system.mem_ctrl.peakBW                       12800.00                       # Theoretical peak bandwidth in MiByte/s
system.mem_ctrl.busUtil                          0.26                       # Data bus utilization in percentage
system.mem_ctrl.busUtilRead                      0.26                       # Data bus utilization in percentage for reads
system.mem_ctrl.busUtilWrite                     0.00                       # Data bus utilization in percentage for writes
system.mem_ctrl.avgRdQLen                        1.00                       # Average read queue length when enqueuing
system.mem_ctrl.avgWrQLen                        0.00                       # Average write queue length when enqueuing
system.mem_ctrl.readRowHits                     20884                       # Number of row buffer hits during reads
system.mem_ctrl.writeRowHits                        0                       # Number of row buffer hits during writes
system.mem_ctrl.readRowHitRate                  76.06                       # Row buffer hit rate for reads
system.mem_ctrl.writeRowHitRate                   nan                       # Row buffer hit rate for writes
system.mem_ctrl.avgGap                     1931685.49                       # Average gap between requests
system.mem_ctrl.pageHitRate                     76.06                       # Row buffer hit rate, read and write combined
system.mem_ctrl_0.actEnergy                  23676240                       # Energy for activate commands per rank (pJ)
system.mem_ctrl_0.preEnergy                  12561450                       # Energy for precharge commands per rank (pJ)
system.mem_ctrl_0.readEnergy                 98089320                       # Energy for read commands per rank (pJ)
system.mem_ctrl_0.writeEnergy                       0                       # Energy for write commands per rank (pJ)
system.mem_ctrl_0.refreshEnergy          1875881280.000000                       # Energy for refresh commands per rank (pJ)
system.mem_ctrl_0.actBackEnergy             518338050                       # Energy for active background per rank (pJ)
system.mem_ctrl_0.preBackEnergy              40828320                       # Energy for precharge background per rank (pJ)
system.mem_ctrl_0.actPowerDownEnergy       9270939990                       # Energy for active power-down per rank (pJ)
system.mem_ctrl_0.prePowerDownEnergy        844138560                       # Energy for precharge power-down per rank (pJ)
system.mem_ctrl_0.selfRefreshEnergy        7033616640                       # Energy for self refresh per rank (pJ)
system.mem_ctrl_0.totalEnergy             19718153220                       # Total energy per rank (pJ)
system.mem_ctrl_0.averagePower             371.744385                       # Core power per rank (mW)
system.mem_ctrl_0.totalIdleTime           51798473750                       # Total Idle time Per DRAM Rank
system.mem_ctrl_0.memoryStateTime::IDLE      22692500                       # Time in different power states
system.mem_ctrl_0.memoryStateTime::REF      793520000                       # Time in different power states
system.mem_ctrl_0.memoryStateTime::SREF   29269734000                       # Time in different power states
system.mem_ctrl_0.memoryStateTime::PRE_PDN   2198062000                       # Time in different power states
system.mem_ctrl_0.memoryStateTime::ACT      427509000                       # Time in different power states
system.mem_ctrl_0.memoryStateTime::ACT_PDN  20330718000                       # Time in different power states
system.mem_ctrl_1.actEnergy                  23269260                       # Energy for activate commands per rank (pJ)
system.mem_ctrl_1.preEnergy                  12356520                       # Energy for precharge commands per rank (pJ)
system.mem_ctrl_1.readEnergy                 97967940                       # Energy for read commands per rank (pJ)
system.mem_ctrl_1.writeEnergy                       0                       # Energy for write commands per rank (pJ)
system.mem_ctrl_1.refreshEnergy          1875266640.000000                       # Energy for refresh commands per rank (pJ)
system.mem_ctrl_1.actBackEnergy             517859820                       # Energy for active background per rank (pJ)
system.mem_ctrl_1.preBackEnergy              43680960                       # Energy for precharge background per rank (pJ)
system.mem_ctrl_1.actPowerDownEnergy       9150057810                       # Energy for active power-down per rank (pJ)
system.mem_ctrl_1.prePowerDownEnergy        943492320                       # Energy for precharge power-down per rank (pJ)
system.mem_ctrl_1.selfRefreshEnergy        7049074260                       # Energy for self refresh per rank (pJ)
system.mem_ctrl_1.totalEnergy             19713025530                       # Total energy per rank (pJ)
system.mem_ctrl_1.averagePower             371.647713                       # Core power per rank (mW)
system.mem_ctrl_1.totalIdleTime           51792891000                       # Total Idle time Per DRAM Rank
system.mem_ctrl_1.memoryStateTime::IDLE      30310500                       # Time in different power states
system.mem_ctrl_1.memoryStateTime::REF      793260000                       # Time in different power states
system.mem_ctrl_1.memoryStateTime::SREF   29269899750                       # Time in different power states
system.mem_ctrl_1.memoryStateTime::PRE_PDN   2457437750                       # Time in different power states
system.mem_ctrl_1.memoryStateTime::ACT      425501250                       # Time in different power states
system.mem_ctrl_1.memoryStateTime::ACT_PDN  20065826250                       # Time in different power states
system.pwrStateResidencyTicks::UNDEFINED  53042235500                       # Cumulative time (in ticks) in various power states
system.cpu.branchPred.lookups                21806533                       # Number of BP lookups
system.cpu.branchPred.condPredicted          21806533                       # Number of conditional branches predicted
system.cpu.branchPred.condIncorrect            461877                       # Number of conditional branches incorrect
system.cpu.branchPred.BTBLookups             18798161                       # Number of BTB lookups
system.cpu.branchPred.BTBHits                       0                       # Number of BTB hits
system.cpu.branchPred.BTBCorrect                    0                       # Number of correct BTB predictions (this stat may not work properly.
system.cpu.branchPred.BTBHitPct              0.000000                       # BTB Hit Percentage
system.cpu.branchPred.usedRAS                  717377                       # Number of times the RAS was used to get a target.
system.cpu.branchPred.RASInCorrect                821                       # Number of incorrect RAS predictions.
system.cpu.branchPred.indirectLookups        18798161                       # Number of indirect predictor lookups.
system.cpu.branchPred.indirectHits            8105288                       # Number of indirect target hits.
system.cpu.branchPred.indirectMisses         10692873                       # Number of indirect misses.
system.cpu.branchPredindirectMispredicted       384181                       # Number of mispredicted indirect branches.
system.cpu.dtb.walker.pwrStateResidencyTicks::UNDEFINED  53042235500                       # Cumulative time (in ticks) in various power states
system.cpu.dtb.rdAccesses                    19001137                       # TLB accesses on read requests
system.cpu.dtb.wrAccesses                    12004562                       # TLB accesses on write requests
system.cpu.dtb.rdMisses                        103601                       # TLB misses on read requests
system.cpu.dtb.wrMisses                           534                       # TLB misses on write requests
system.cpu.apic_clk_domain.clock                 8000                       # Clock period in ticks
system.cpu.interrupts.pwrStateResidencyTicks::UNDEFINED  53042235500                       # Cumulative time (in ticks) in various power states
system.cpu.itb.walker.pwrStateResidencyTicks::UNDEFINED  53042235500                       # Cumulative time (in ticks) in various power states
system.cpu.itb.rdAccesses                           0                       # TLB accesses on read requests
system.cpu.itb.wrAccesses                    13168856                       # TLB accesses on write requests
system.cpu.itb.rdMisses                             0                       # TLB misses on read requests
system.cpu.itb.wrMisses                           150                       # TLB misses on write requests
system.cpu.workload.numSyscalls                    86                       # Number of system calls
system.cpu.pwrStateResidencyTicks::ON     53042235500                       # Cumulative time (in ticks) in various power states
system.cpu.numCycles                        106084472                       # number of cpu cycles simulated
system.cpu.numWorkItemsStarted                      0                       # number of work items this cpu started
system.cpu.numWorkItemsCompleted                    0                       # number of work items this cpu completed
system.cpu.fetch.icacheStallCycles             474790                       # Number of cycles fetch is stalled on an Icache miss
system.cpu.fetch.Insts                       94646290                       # Number of instructions fetch has processed
system.cpu.fetch.Branches                    21806533                       # Number of branches that fetch encountered
system.cpu.fetch.predictedBranches            8822665                       # Number of branches that fetch has predicted taken
system.cpu.fetch.Cycles                     105102613                       # Number of cycles fetch has run and was not squashing or blocked
system.cpu.fetch.SquashCycles                  924584                       # Number of cycles fetch has spent squashing
system.cpu.fetch.MiscStallCycles                   67                       # Number of cycles fetch has spent waiting on interrupts, or bad addresses, or out of MSHRs
system.cpu.fetch.PendingTrapStallCycles           851                       # Number of stall cycles due to pending traps
system.cpu.fetch.PendingQuiesceStallCycles           18                       # Number of stall cycles due to pending quiesce instructions
system.cpu.fetch.CacheLines                  13168763                       # Number of cache lines fetched
system.cpu.fetch.IcacheSquashes                   486                       # Number of outstanding Icache misses that were squashed
system.cpu.fetch.rateDist::samples          106040631                       # Number of instructions fetched each cycle (Total)
system.cpu.fetch.rateDist::mean              1.651891                       # Number of instructions fetched each cycle (Total)
system.cpu.fetch.rateDist::stdev             0.708732                       # Number of instructions fetched each cycle (Total)
system.cpu.fetch.rateDist::underflows               0      0.00%      0.00% # Number of instructions fetched each cycle (Total)
system.cpu.fetch.rateDist::0                 14600311     13.77%     13.77% # Number of instructions fetched each cycle (Total)
system.cpu.fetch.rateDist::1                  7713072      7.27%     21.04% # Number of instructions fetched each cycle (Total)
system.cpu.fetch.rateDist::2                 83727248     78.96%    100.00% # Number of instructions fetched each cycle (Total)
system.cpu.fetch.rateDist::overflows                0      0.00%    100.00% # Number of instructions fetched each cycle (Total)
system.cpu.fetch.rateDist::min_value                0                       # Number of instructions fetched each cycle (Total)
system.cpu.fetch.rateDist::max_value                2                       # Number of instructions fetched each cycle (Total)
system.cpu.fetch.rateDist::total            106040631                       # Number of instructions fetched each cycle (Total)
system.cpu.fetch.branchRate                  0.205558                       # Number of branch fetches per cycle
system.cpu.fetch.rate                        0.892179                       # Number of inst fetches per cycle
system.cpu.decode.IdleCycles                  3469454                       # Number of cycles decode is idle
system.cpu.decode.BlockedCycles              12816218                       # Number of cycles decode is blocked
system.cpu.decode.RunCycles                  87285511                       # Number of cycles decode is running
system.cpu.decode.UnblockCycles               2007156                       # Number of cycles decode is unblocking
system.cpu.decode.SquashCycles                 462292                       # Number of cycles decode is squashing
system.cpu.decode.DecodedInsts              171047456                       # Number of instructions handled by decode
system.cpu.decode.SquashedInsts               1698289                       # Number of squashed instructions handled by decode
system.cpu.rename.SquashCycles                 462292                       # Number of cycles rename is squashing
system.cpu.rename.IdleCycles                  5848353                       # Number of cycles rename is idle
system.cpu.rename.BlockCycles                 7297073                       # Number of cycles rename is blocking
system.cpu.rename.serializeStallCycles           4840                       # count of cycles rename stalled for serializing inst
system.cpu.rename.RunCycles                  86764392                       # Number of cycles rename is running
system.cpu.rename.UnblockCycles               5663681                       # Number of cycles rename is unblocking
system.cpu.rename.RenamedInsts              169257612                       # Number of instructions processed by rename
system.cpu.rename.SquashedInsts                883234                       # Number of squashed instructions processed by rename
system.cpu.rename.ROBFullEvents                   152                       # Number of times rename has blocked due to ROB full
system.cpu.rename.IQFullEvents                 548930                       # Number of times rename has blocked due to IQ full
system.cpu.rename.LQFullEvents                  41773                       # Number of times rename has blocked due to LQ full
system.cpu.rename.SQFullEvents                4055288                       # Number of times rename has blocked due to SQ full
system.cpu.rename.FullRegisterEvents           116246                       # Number of times there has been no free registers
system.cpu.rename.RenamedOperands           189977978                       # Number of destination operands rename has renamed
system.cpu.rename.RenameLookups             431266916                       # Number of register rename lookups that rename has made
system.cpu.rename.int_rename_lookups        248952304                       # Number of integer rename lookups
system.cpu.rename.fp_rename_lookups            304390                       # Number of floating rename lookups
system.cpu.rename.CommittedMaps             177569425                       # Number of HB maps that are committed
system.cpu.rename.UndoneMaps                 12408553                       # Number of HB maps that are undone due to squashing
system.cpu.rename.serializingInsts                102                       # count of serializing insts renamed
system.cpu.rename.tempSerializingInsts            100                       # count of temporary serializing insts renamed
system.cpu.rename.skidInsts                   2994342                       # count of insts added to the skid buffer
system.cpu.memDep0.insertedLoads             19545327                       # Number of loads inserted to the mem dependence unit.
system.cpu.memDep0.insertedStores            12409225                       # Number of stores inserted to the mem dependence unit.
system.cpu.memDep0.conflictingLoads           1043516                       # Number of conflicting loads.
system.cpu.memDep0.conflictingStores           422862                       # Number of conflicting stores.
system.cpu.iq.iqInstsAdded                  167464220                       # Number of instructions added to the IQ (excludes non-spec)
system.cpu.iq.iqNonSpecInstsAdded                 331                       # Number of non-speculative instructions added to the IQ
system.cpu.iq.iqInstsIssued                 164106908                       # Number of instructions issued
system.cpu.iq.iqSquashedInstsIssued            945260                       # Number of squashed instructions issued
system.cpu.iq.iqSquashedInstsExamined         9368577                       # Number of squashed instructions iterated over during squash; mainly for profiling
system.cpu.iq.iqSquashedOperandsExamined     12223951                       # Number of squashed operands that are examined and possibly removed from graph
system.cpu.iq.iqSquashedNonSpecRemoved            245                       # Number of squashed non-spec instructions that were removed
system.cpu.iq.issued_per_cycle::samples     106040631                       # Number of insts issued each cycle
system.cpu.iq.issued_per_cycle::mean         1.547585                       # Number of insts issued each cycle
system.cpu.iq.issued_per_cycle::stdev        0.761354                       # Number of insts issued each cycle
system.cpu.iq.issued_per_cycle::underflows            0      0.00%      0.00% # Number of insts issued each cycle
system.cpu.iq.issued_per_cycle::0            17598738     16.60%     16.60% # Number of insts issued each cycle
system.cpu.iq.issued_per_cycle::1            12776878     12.05%     28.65% # Number of insts issued each cycle
system.cpu.iq.issued_per_cycle::2            75665015     71.35%    100.00% # Number of insts issued each cycle
system.cpu.iq.issued_per_cycle::overflows            0      0.00%    100.00% # Number of insts issued each cycle
system.cpu.iq.issued_per_cycle::min_value            0                       # Number of insts issued each cycle
system.cpu.iq.issued_per_cycle::max_value            2                       # Number of insts issued each cycle
system.cpu.iq.issued_per_cycle::total       106040631                       # Number of insts issued each cycle
system.cpu.iq.fu_full::No_OpClass                   0      0.00%      0.00% # attempts to use FU when none available
system.cpu.iq.fu_full::IntAlu                       0      0.00%      0.00% # attempts to use FU when none available
system.cpu.iq.fu_full::IntMult                      0      0.00%      0.00% # attempts to use FU when none available
system.cpu.iq.fu_full::IntDiv                       0      0.00%      0.00% # attempts to use FU when none available
system.cpu.iq.fu_full::FloatAdd                     0      0.00%      0.00% # attempts to use FU when none available
system.cpu.iq.fu_full::FloatCmp                     0      0.00%      0.00% # attempts to use FU when none available
system.cpu.iq.fu_full::FloatCvt                     0      0.00%      0.00% # attempts to use FU when none available
system.cpu.iq.fu_full::FloatMult                    0      0.00%      0.00% # attempts to use FU when none available
system.cpu.iq.fu_full::FloatMultAcc                 0      0.00%      0.00% # attempts to use FU when none available
system.cpu.iq.fu_full::FloatDiv                     0      0.00%      0.00% # attempts to use FU when none available
system.cpu.iq.fu_full::FloatMisc                    0      0.00%      0.00% # attempts to use FU when none available
system.cpu.iq.fu_full::FloatSqrt                    0      0.00%      0.00% # attempts to use FU when none available
system.cpu.iq.fu_full::SimdAdd                    247      0.01%      0.01% # attempts to use FU when none available
system.cpu.iq.fu_full::SimdAddAcc                   0      0.00%      0.01% # attempts to use FU when none available
system.cpu.iq.fu_full::SimdAlu                     68      0.00%      0.01% # attempts to use FU when none available
system.cpu.iq.fu_full::SimdCmp                      0      0.00%      0.01% # attempts to use FU when none available
system.cpu.iq.fu_full::SimdCvt                     43      0.00%      0.01% # attempts to use FU when none available
system.cpu.iq.fu_full::SimdMisc                   152      0.00%      0.01% # attempts to use FU when none available
system.cpu.iq.fu_full::SimdMult                     0      0.00%      0.01% # attempts to use FU when none available
system.cpu.iq.fu_full::SimdMultAcc                  0      0.00%      0.01% # attempts to use FU when none available
system.cpu.iq.fu_full::SimdShift                  120      0.00%      0.01% # attempts to use FU when none available
system.cpu.iq.fu_full::SimdShiftAcc                 0      0.00%      0.01% # attempts to use FU when none available
system.cpu.iq.fu_full::SimdSqrt                     0      0.00%      0.01% # attempts to use FU when none available
system.cpu.iq.fu_full::SimdFloatAdd                 0      0.00%      0.01% # attempts to use FU when none available
system.cpu.iq.fu_full::SimdFloatAlu                 0      0.00%      0.01% # attempts to use FU when none available
system.cpu.iq.fu_full::SimdFloatCmp                 0      0.00%      0.01% # attempts to use FU when none available
system.cpu.iq.fu_full::SimdFloatCvt                 0      0.00%      0.01% # attempts to use FU when none available
system.cpu.iq.fu_full::SimdFloatDiv                 0      0.00%      0.01% # attempts to use FU when none available
system.cpu.iq.fu_full::SimdFloatMisc                0      0.00%      0.01% # attempts to use FU when none available
system.cpu.iq.fu_full::SimdFloatMult                0      0.00%      0.01% # attempts to use FU when none available
system.cpu.iq.fu_full::SimdFloatMultAcc             0      0.00%      0.01% # attempts to use FU when none available
system.cpu.iq.fu_full::SimdFloatSqrt                0      0.00%      0.01% # attempts to use FU when none available
system.cpu.iq.fu_full::SimdAes                      0      0.00%      0.01% # attempts to use FU when none available
system.cpu.iq.fu_full::SimdAesMix                   0      0.00%      0.01% # attempts to use FU when none available
system.cpu.iq.fu_full::SimdSha1Hash                 0      0.00%      0.01% # attempts to use FU when none available
system.cpu.iq.fu_full::SimdSha1Hash2                0      0.00%      0.01% # attempts to use FU when none available
system.cpu.iq.fu_full::SimdSha256Hash               0      0.00%      0.01% # attempts to use FU when none available
system.cpu.iq.fu_full::SimdSha256Hash2              0      0.00%      0.01% # attempts to use FU when none available
system.cpu.iq.fu_full::SimdShaSigma2                0      0.00%      0.01% # attempts to use FU when none available
system.cpu.iq.fu_full::SimdShaSigma3                0      0.00%      0.01% # attempts to use FU when none available
system.cpu.iq.fu_full::MemRead                3076139     72.75%     72.76% # attempts to use FU when none available
system.cpu.iq.fu_full::MemWrite               1151760     27.24%    100.00% # attempts to use FU when none available
system.cpu.iq.fu_full::FloatMemRead                 0      0.00%    100.00% # attempts to use FU when none available
system.cpu.iq.fu_full::FloatMemWrite                0      0.00%    100.00% # attempts to use FU when none available
system.cpu.iq.fu_full::IprAccess                    0      0.00%    100.00% # attempts to use FU when none available
system.cpu.iq.fu_full::InstPrefetch                 0      0.00%    100.00% # attempts to use FU when none available
system.cpu.iq.FU_type_0::No_OpClass            256697      0.16%      0.16% # Type of FU issued
system.cpu.iq.FU_type_0::IntAlu             132065354     80.48%     80.63% # Type of FU issued
system.cpu.iq.FU_type_0::IntMult               395053      0.24%     80.87% # Type of FU issued
system.cpu.iq.FU_type_0::IntDiv                    30      0.00%     80.87% # Type of FU issued
system.cpu.iq.FU_type_0::FloatAdd              100017      0.06%     80.93% # Type of FU issued
system.cpu.iq.FU_type_0::FloatCmp                   0      0.00%     80.93% # Type of FU issued
system.cpu.iq.FU_type_0::FloatCvt                   0      0.00%     80.93% # Type of FU issued
system.cpu.iq.FU_type_0::FloatMult                  0      0.00%     80.93% # Type of FU issued
system.cpu.iq.FU_type_0::FloatMultAcc               0      0.00%     80.93% # Type of FU issued
system.cpu.iq.FU_type_0::FloatDiv                   0      0.00%     80.93% # Type of FU issued
system.cpu.iq.FU_type_0::FloatMisc                  0      0.00%     80.93% # Type of FU issued
system.cpu.iq.FU_type_0::FloatSqrt                  0      0.00%     80.93% # Type of FU issued
system.cpu.iq.FU_type_0::SimdAdd                  375      0.00%     80.93% # Type of FU issued
system.cpu.iq.FU_type_0::SimdAddAcc                 0      0.00%     80.93% # Type of FU issued
system.cpu.iq.FU_type_0::SimdAlu                  106      0.00%     80.93% # Type of FU issued
system.cpu.iq.FU_type_0::SimdCmp                    6      0.00%     80.93% # Type of FU issued
system.cpu.iq.FU_type_0::SimdCvt                  151      0.00%     80.93% # Type of FU issued
system.cpu.iq.FU_type_0::SimdMisc                 262      0.00%     80.93% # Type of FU issued
system.cpu.iq.FU_type_0::SimdMult                   0      0.00%     80.93% # Type of FU issued
system.cpu.iq.FU_type_0::SimdMultAcc                0      0.00%     80.93% # Type of FU issued
system.cpu.iq.FU_type_0::SimdShift                186      0.00%     80.93% # Type of FU issued
system.cpu.iq.FU_type_0::SimdShiftAcc               0      0.00%     80.93% # Type of FU issued
system.cpu.iq.FU_type_0::SimdSqrt                   0      0.00%     80.93% # Type of FU issued
system.cpu.iq.FU_type_0::SimdFloatAdd               0      0.00%     80.93% # Type of FU issued
system.cpu.iq.FU_type_0::SimdFloatAlu               0      0.00%     80.93% # Type of FU issued
system.cpu.iq.FU_type_0::SimdFloatCmp               0      0.00%     80.93% # Type of FU issued
system.cpu.iq.FU_type_0::SimdFloatCvt               0      0.00%     80.93% # Type of FU issued
system.cpu.iq.FU_type_0::SimdFloatDiv               0      0.00%     80.93% # Type of FU issued
system.cpu.iq.FU_type_0::SimdFloatMisc              0      0.00%     80.93% # Type of FU issued
system.cpu.iq.FU_type_0::SimdFloatMult              0      0.00%     80.93% # Type of FU issued
system.cpu.iq.FU_type_0::SimdFloatMultAcc            0      0.00%     80.93% # Type of FU issued
system.cpu.iq.FU_type_0::SimdFloatSqrt              0      0.00%     80.93% # Type of FU issued
system.cpu.iq.FU_type_0::SimdAes                    0      0.00%     80.93% # Type of FU issued
system.cpu.iq.FU_type_0::SimdAesMix                 0      0.00%     80.93% # Type of FU issued
system.cpu.iq.FU_type_0::SimdSha1Hash               0      0.00%     80.93% # Type of FU issued
system.cpu.iq.FU_type_0::SimdSha1Hash2              0      0.00%     80.93% # Type of FU issued
system.cpu.iq.FU_type_0::SimdSha256Hash             0      0.00%     80.93% # Type of FU issued
system.cpu.iq.FU_type_0::SimdSha256Hash2            0      0.00%     80.93% # Type of FU issued
system.cpu.iq.FU_type_0::SimdShaSigma2              0      0.00%     80.93% # Type of FU issued
system.cpu.iq.FU_type_0::SimdShaSigma3              0      0.00%     80.93% # Type of FU issued
system.cpu.iq.FU_type_0::MemRead             18806240     11.46%     92.39% # Type of FU issued
system.cpu.iq.FU_type_0::MemWrite            11881673      7.24%     99.63% # Type of FU issued
system.cpu.iq.FU_type_0::FloatMemRead          300192      0.18%     99.82% # Type of FU issued
system.cpu.iq.FU_type_0::FloatMemWrite         300566      0.18%    100.00% # Type of FU issued
system.cpu.iq.FU_type_0::IprAccess                  0      0.00%    100.00% # Type of FU issued
system.cpu.iq.FU_type_0::InstPrefetch               0      0.00%    100.00% # Type of FU issued
system.cpu.iq.FU_type_0::total              164106908                       # Type of FU issued
system.cpu.iq.rate                           1.546946                       # Inst issue rate
system.cpu.iq.fu_busy_cnt                     4228529                       # FU busy when requested
system.cpu.iq.fu_busy_rate                   0.025767                       # FU busy rate (busy events/executed inst)
system.cpu.iq.int_inst_queue_reads          438022824                       # Number of integer instruction queue reads
system.cpu.iq.int_inst_queue_writes         176130719                       # Number of integer instruction queue writes
system.cpu.iq.int_inst_queue_wakeup_accesses    161223330                       # Number of integer instruction queue wakeup accesses
system.cpu.iq.fp_inst_queue_reads             1405412                       # Number of floating instruction queue reads
system.cpu.iq.fp_inst_queue_writes             702774                       # Number of floating instruction queue writes
system.cpu.iq.fp_inst_queue_wakeup_accesses       702311                       # Number of floating instruction queue wakeup accesses
system.cpu.iq.vec_inst_queue_reads                  0                       # Number of vector instruction queue reads
system.cpu.iq.vec_inst_queue_writes                 0                       # Number of vector instruction queue writes
system.cpu.iq.vec_inst_queue_wakeup_accesses            0                       # Number of vector instruction queue wakeup accesses
system.cpu.iq.int_alu_accesses              167375722                       # Number of integer alu accesses
system.cpu.iq.fp_alu_accesses                  703018                       # Number of floating point alu accesses
system.cpu.iq.vec_alu_accesses                      0                       # Number of vector alu accesses
system.cpu.iew.lsq.thread0.forwLoads          1331778                       # Number of loads that had data forwarded from stores
system.cpu.iew.lsq.thread0.invAddrLoads             0                       # Number of loads ignored due to an invalid address
system.cpu.iew.lsq.thread0.squashedLoads      1058713                       # Number of loads squashed
system.cpu.iew.lsq.thread0.ignoredResponses         2227                       # Number of memory responses ignored because the instruction is squashed
system.cpu.iew.lsq.thread0.memOrderViolation          369                       # Number of memory ordering violations
system.cpu.iew.lsq.thread0.squashedStores       812184                       # Number of stores squashed
system.cpu.iew.lsq.thread0.invAddrSwpfs             0                       # Number of software prefetches ignored due to an invalid address
system.cpu.iew.lsq.thread0.blockedLoads             0                       # Number of blocked loads due to partial load-store forwarding
system.cpu.iew.lsq.thread0.rescheduledLoads            1                       # Number of loads that were rescheduled
system.cpu.iew.lsq.thread0.cacheBlocked            70                       # Number of times an access to memory failed due to the cache being blocked
system.cpu.iew.iewIdleCycles                        0                       # Number of cycles IEW is idle
system.cpu.iew.iewSquashCycles                 462292                       # Number of cycles IEW is squashing
system.cpu.iew.iewBlockCycles                 4231845                       # Number of cycles IEW is blocking
system.cpu.iew.iewUnblockCycles                100775                       # Number of cycles IEW is unblocking
system.cpu.iew.iewDispatchedInsts           167464551                       # Number of instructions dispatched to IQ
system.cpu.iew.iewDispSquashedInsts            450562                       # Number of squashed instructions skipped by dispatch
system.cpu.iew.iewDispLoadInsts              19545327                       # Number of dispatched load instructions
system.cpu.iew.iewDispStoreInsts             12409225                       # Number of dispatched store instructions
system.cpu.iew.iewDispNonSpecInsts                173                       # Number of dispatched non-speculative instructions
system.cpu.iew.iewIQFullEvents                  31542                       # Number of times the IQ has become full, causing a stall
system.cpu.iew.iewLSQFullEvents                  3154                       # Number of times the LSQ has become full, causing a stall
system.cpu.iew.memOrderViolationEvents            369                       # Number of memory order violations
system.cpu.iew.predictedTakenIncorrect          56955                       # Number of branches that were predicted taken incorrectly
system.cpu.iew.predictedNotTakenIncorrect       459511                       # Number of branches that were predicted not taken incorrectly
system.cpu.iew.branchMispredicts               516466                       # Number of branch mispredicts detected at execute
system.cpu.iew.iewExecutedInsts             162436424                       # Number of executed instructions
system.cpu.iew.iewExecLoadInsts              19001099                       # Number of load instructions executed
system.cpu.iew.iewExecSquashedInsts           1670484                       # Number of squashed instructions skipped in execute
system.cpu.iew.exec_swp                             0                       # number of swp insts executed
system.cpu.iew.exec_nop                             0                       # number of nop insts executed
system.cpu.iew.exec_refs                     31005661                       # number of memory reference insts executed
system.cpu.iew.exec_branches                 19859140                       # Number of branches executed
system.cpu.iew.exec_stores                   12004562                       # Number of stores executed
system.cpu.iew.exec_rate                     1.531199                       # Inst execution rate
system.cpu.iew.wb_sent                      162219365                       # cumulative count of insts sent to commit
system.cpu.iew.wb_count                     161925641                       # cumulative count of insts written-back
system.cpu.iew.wb_producers                 117076259                       # num instructions producing a value
system.cpu.iew.wb_consumers                 180331726                       # num instructions consuming a value
system.cpu.iew.wb_rate                       1.526384                       # insts written-back per cycle
system.cpu.iew.wb_fanout                     0.649227                       # average fanout of values written-back
system.cpu.commit.commitSquashedInsts         8503459                       # The number of squashed insts skipped by commit
system.cpu.commit.commitNonSpecStalls              86                       # The number of times commit has been forced to stall to communicate backwards
system.cpu.commit.branchMispredicts            461938                       # The number of times a branch was mispredicted
system.cpu.commit.committed_per_cycle::samples    105326214                       # Number of insts commited each cycle
system.cpu.commit.committed_per_cycle::mean     1.501013                       # Number of insts commited each cycle
system.cpu.commit.committed_per_cycle::stdev     0.807730                       # Number of insts commited each cycle
system.cpu.commit.committed_per_cycle::underflows            0      0.00%      0.00% # Number of insts commited each cycle
system.cpu.commit.committed_per_cycle::0     21193142     20.12%     20.12% # Number of insts commited each cycle
system.cpu.commit.committed_per_cycle::1     10170171      9.66%     29.78% # Number of insts commited each cycle
system.cpu.commit.committed_per_cycle::2     73962901     70.22%    100.00% # Number of insts commited each cycle
system.cpu.commit.committed_per_cycle::overflows            0      0.00%    100.00% # Number of insts commited each cycle
system.cpu.commit.committed_per_cycle::min_value            0                       # Number of insts commited each cycle
system.cpu.commit.committed_per_cycle::max_value            2                       # Number of insts commited each cycle
system.cpu.commit.committed_per_cycle::total    105326214                       # Number of insts commited each cycle
system.cpu.commit.committedInsts             85121742                       # Number of instructions committed
system.cpu.commit.committedOps              158095973                       # Number of ops (including micro ops) committed
system.cpu.commit.swp_count                         0                       # Number of s/w prefetches committed
system.cpu.commit.refs                       30083655                       # Number of memory references committed
system.cpu.commit.loads                      18486614                       # Number of loads committed
system.cpu.commit.membars                           0                       # Number of memory barriers committed
system.cpu.commit.branches                   19756630                       # Number of branches committed
system.cpu.commit.vec_insts                         0                       # Number of committed Vector instructions.
system.cpu.commit.fp_insts                     702138                       # Number of committed floating point instructions.
system.cpu.commit.int_insts                 157789319                       # Number of committed integer instructions.
system.cpu.commit.function_calls               665498                       # Number of function calls committed.
system.cpu.commit.op_class_0::No_OpClass       100115      0.06%      0.06% # Class of committed instruction
system.cpu.commit.op_class_0::IntAlu        127433462     80.61%     80.67% # Class of committed instruction
system.cpu.commit.op_class_0::IntMult          377627      0.24%     80.91% # Class of committed instruction
system.cpu.commit.op_class_0::IntDiv               28      0.00%     80.91% # Class of committed instruction
system.cpu.commit.op_class_0::FloatAdd         100015      0.06%     80.97% # Class of committed instruction
system.cpu.commit.op_class_0::FloatCmp              0      0.00%     80.97% # Class of committed instruction
system.cpu.commit.op_class_0::FloatCvt              0      0.00%     80.97% # Class of committed instruction
system.cpu.commit.op_class_0::FloatMult             0      0.00%     80.97% # Class of committed instruction
system.cpu.commit.op_class_0::FloatMultAcc            0      0.00%     80.97% # Class of committed instruction
system.cpu.commit.op_class_0::FloatDiv              0      0.00%     80.97% # Class of committed instruction
system.cpu.commit.op_class_0::FloatMisc             0      0.00%     80.97% # Class of committed instruction
system.cpu.commit.op_class_0::FloatSqrt             0      0.00%     80.97% # Class of committed instruction
system.cpu.commit.op_class_0::SimdAdd             374      0.00%     80.97% # Class of committed instruction
system.cpu.commit.op_class_0::SimdAddAcc            0      0.00%     80.97% # Class of committed instruction
system.cpu.commit.op_class_0::SimdAlu             102      0.00%     80.97% # Class of committed instruction
system.cpu.commit.op_class_0::SimdCmp               6      0.00%     80.97% # Class of committed instruction
system.cpu.commit.op_class_0::SimdCvt             144      0.00%     80.97% # Class of committed instruction
system.cpu.commit.op_class_0::SimdMisc            259      0.00%     80.97% # Class of committed instruction
system.cpu.commit.op_class_0::SimdMult              0      0.00%     80.97% # Class of committed instruction
system.cpu.commit.op_class_0::SimdMultAcc            0      0.00%     80.97% # Class of committed instruction
system.cpu.commit.op_class_0::SimdShift           186      0.00%     80.97% # Class of committed instruction
system.cpu.commit.op_class_0::SimdShiftAcc            0      0.00%     80.97% # Class of committed instruction
system.cpu.commit.op_class_0::SimdSqrt              0      0.00%     80.97% # Class of committed instruction
system.cpu.commit.op_class_0::SimdFloatAdd            0      0.00%     80.97% # Class of committed instruction
system.cpu.commit.op_class_0::SimdFloatAlu            0      0.00%     80.97% # Class of committed instruction
system.cpu.commit.op_class_0::SimdFloatCmp            0      0.00%     80.97% # Class of committed instruction
system.cpu.commit.op_class_0::SimdFloatCvt            0      0.00%     80.97% # Class of committed instruction
system.cpu.commit.op_class_0::SimdFloatDiv            0      0.00%     80.97% # Class of committed instruction
system.cpu.commit.op_class_0::SimdFloatMisc            0      0.00%     80.97% # Class of committed instruction
system.cpu.commit.op_class_0::SimdFloatMult            0      0.00%     80.97% # Class of committed instruction
system.cpu.commit.op_class_0::SimdFloatMultAcc            0      0.00%     80.97% # Class of committed instruction
system.cpu.commit.op_class_0::SimdFloatSqrt            0      0.00%     80.97% # Class of committed instruction
system.cpu.commit.op_class_0::SimdAes               0      0.00%     80.97% # Class of committed instruction
system.cpu.commit.op_class_0::SimdAesMix            0      0.00%     80.97% # Class of committed instruction
system.cpu.commit.op_class_0::SimdSha1Hash            0      0.00%     80.97% # Class of committed instruction
system.cpu.commit.op_class_0::SimdSha1Hash2            0      0.00%     80.97% # Class of committed instruction
system.cpu.commit.op_class_0::SimdSha256Hash            0      0.00%     80.97% # Class of committed instruction
system.cpu.commit.op_class_0::SimdSha256Hash2            0      0.00%     80.97% # Class of committed instruction
system.cpu.commit.op_class_0::SimdShaSigma2            0      0.00%     80.97% # Class of committed instruction
system.cpu.commit.op_class_0::SimdShaSigma3            0      0.00%     80.97% # Class of committed instruction
system.cpu.commit.op_class_0::MemRead        18186510     11.50%     92.47% # Class of committed instruction
system.cpu.commit.op_class_0::MemWrite       11296614      7.15%     99.62% # Class of committed instruction
system.cpu.commit.op_class_0::FloatMemRead       300104      0.19%     99.81% # Class of committed instruction
system.cpu.commit.op_class_0::FloatMemWrite       300427      0.19%    100.00% # Class of committed instruction
system.cpu.commit.op_class_0::IprAccess             0      0.00%    100.00% # Class of committed instruction
system.cpu.commit.op_class_0::InstPrefetch            0      0.00%    100.00% # Class of committed instruction
system.cpu.commit.op_class_0::total         158095973                       # Class of committed instruction
system.cpu.commit.bw_lim_events              73962901                       # number cycles where commit BW limit reached
system.cpu.rob.rob_reads                    197962745                       # The number of ROB reads
system.cpu.rob.rob_writes                   333913295                       # The number of ROB writes
system.cpu.timesIdled                             472                       # Number of times that the entire CPU went into an idle state and unscheduled itself
system.cpu.idleCycles                           43841                       # Total number of cycles that the CPU has spent unscheduled due to idling
system.cpu.committedInsts                    85121742                       # Number of Instructions Simulated
system.cpu.committedOps                     158095973                       # Number of Ops (including micro ops) Simulated
system.cpu.cpi                               1.246268                       # CPI: Cycles Per Instruction
system.cpu.cpi_total                         1.246268                       # CPI: Total CPI of All Threads
system.cpu.ipc                               0.802396                       # IPC: Instructions Per Cycle
system.cpu.ipc_total                         0.802396                       # IPC: Total IPC of All Threads
system.cpu.int_regfile_reads                238420582                       # number of integer regfile reads
system.cpu.int_regfile_writes               129957391                       # number of integer regfile writes
system.cpu.fp_regfile_reads                    304213                       # number of floating regfile reads
system.cpu.fp_regfile_writes                   401705                       # number of floating regfile writes
system.cpu.cc_regfile_reads                 101457367                       # number of cc regfile reads
system.cpu.cc_regfile_writes                 51560070                       # number of cc regfile writes
system.cpu.misc_regfile_reads                72114747                       # number of misc regfile reads
system.cpu.dcache.tags.pwrStateResidencyTicks::UNDEFINED  53042235500                       # Cumulative time (in ticks) in various power states
system.cpu.dcache.tags.tagsinuse           511.576508                       # Cycle average of tags in use
system.cpu.dcache.tags.total_refs            29251830                       # Total number of references to valid blocks.
system.cpu.dcache.tags.sampled_refs            214257                       # Sample count of references to valid blocks.
system.cpu.dcache.tags.avg_refs            136.526835                       # Average number of references to valid blocks.
system.cpu.dcache.tags.warmup_cycle            170000                       # Cycle when the warmup percentage was hit.
system.cpu.dcache.tags.occ_blocks::.cpu.data   511.576508                       # Average occupied blocks per requestor
system.cpu.dcache.tags.occ_percent::.cpu.data     0.999173                       # Average percentage of cache occupancy
system.cpu.dcache.tags.occ_percent::total     0.999173                       # Average percentage of cache occupancy
system.cpu.dcache.tags.occ_task_id_blocks::1024          512                       # Occupied blocks per task id
system.cpu.dcache.tags.age_task_id_blocks_1024::0          120                       # Occupied blocks per task id
system.cpu.dcache.tags.age_task_id_blocks_1024::1          379                       # Occupied blocks per task id
system.cpu.dcache.tags.age_task_id_blocks_1024::3           10                       # Occupied blocks per task id
system.cpu.dcache.tags.age_task_id_blocks_1024::4            3                       # Occupied blocks per task id
system.cpu.dcache.tags.occ_task_id_percent::1024            1                       # Percentage of cache occupancy per task id
system.cpu.dcache.tags.tag_accesses         234238233                       # Number of tag accesses
system.cpu.dcache.tags.data_accesses        234238233                       # Number of data accesses
system.cpu.dcache.pwrStateResidencyTicks::UNDEFINED  53042235500                       # Cumulative time (in ticks) in various power states
system.cpu.dcache.ReadReq_hits::.cpu.data     17467045                       # number of ReadReq hits
system.cpu.dcache.ReadReq_hits::total        17467045                       # number of ReadReq hits
system.cpu.dcache.WriteReq_hits::.cpu.data     11525391                       # number of WriteReq hits
system.cpu.dcache.WriteReq_hits::total       11525391                       # number of WriteReq hits
system.cpu.dcache.demand_hits::.cpu.data     28992436                       # number of demand (read+write) hits
system.cpu.dcache.demand_hits::total         28992436                       # number of demand (read+write) hits
system.cpu.dcache.overall_hits::.cpu.data     28992436                       # number of overall hits
system.cpu.dcache.overall_hits::total        28992436                       # number of overall hits
system.cpu.dcache.ReadReq_misses::.cpu.data       188911                       # number of ReadReq misses
system.cpu.dcache.ReadReq_misses::total        188911                       # number of ReadReq misses
system.cpu.dcache.WriteReq_misses::.cpu.data        71650                       # number of WriteReq misses
system.cpu.dcache.WriteReq_misses::total        71650                       # number of WriteReq misses
system.cpu.dcache.demand_misses::.cpu.data       260561                       # number of demand (read+write) misses
system.cpu.dcache.demand_misses::total         260561                       # number of demand (read+write) misses
system.cpu.dcache.overall_misses::.cpu.data       260561                       # number of overall misses
system.cpu.dcache.overall_misses::total        260561                       # number of overall misses
system.cpu.dcache.ReadReq_miss_latency::.cpu.data   5103267500                       # number of ReadReq miss cycles
system.cpu.dcache.ReadReq_miss_latency::total   5103267500                       # number of ReadReq miss cycles
system.cpu.dcache.WriteReq_miss_latency::.cpu.data   2433641500                       # number of WriteReq miss cycles
system.cpu.dcache.WriteReq_miss_latency::total   2433641500                       # number of WriteReq miss cycles
system.cpu.dcache.demand_miss_latency::.cpu.data   7536909000                       # number of demand (read+write) miss cycles
system.cpu.dcache.demand_miss_latency::total   7536909000                       # number of demand (read+write) miss cycles
system.cpu.dcache.overall_miss_latency::.cpu.data   7536909000                       # number of overall miss cycles
system.cpu.dcache.overall_miss_latency::total   7536909000                       # number of overall miss cycles
system.cpu.dcache.ReadReq_accesses::.cpu.data     17655956                       # number of ReadReq accesses(hits+misses)
system.cpu.dcache.ReadReq_accesses::total     17655956                       # number of ReadReq accesses(hits+misses)
system.cpu.dcache.WriteReq_accesses::.cpu.data     11597041                       # number of WriteReq accesses(hits+misses)
system.cpu.dcache.WriteReq_accesses::total     11597041                       # number of WriteReq accesses(hits+misses)
system.cpu.dcache.demand_accesses::.cpu.data     29252997                       # number of demand (read+write) accesses
system.cpu.dcache.demand_accesses::total     29252997                       # number of demand (read+write) accesses
system.cpu.dcache.overall_accesses::.cpu.data     29252997                       # number of overall (read+write) accesses
system.cpu.dcache.overall_accesses::total     29252997                       # number of overall (read+write) accesses
system.cpu.dcache.ReadReq_miss_rate::.cpu.data     0.010700                       # miss rate for ReadReq accesses
system.cpu.dcache.ReadReq_miss_rate::total     0.010700                       # miss rate for ReadReq accesses
system.cpu.dcache.WriteReq_miss_rate::.cpu.data     0.006178                       # miss rate for WriteReq accesses
system.cpu.dcache.WriteReq_miss_rate::total     0.006178                       # miss rate for WriteReq accesses
system.cpu.dcache.demand_miss_rate::.cpu.data     0.008907                       # miss rate for demand accesses
system.cpu.dcache.demand_miss_rate::total     0.008907                       # miss rate for demand accesses
system.cpu.dcache.overall_miss_rate::.cpu.data     0.008907                       # miss rate for overall accesses
system.cpu.dcache.overall_miss_rate::total     0.008907                       # miss rate for overall accesses
system.cpu.dcache.ReadReq_avg_miss_latency::.cpu.data 27014.136286                       # average ReadReq miss latency
system.cpu.dcache.ReadReq_avg_miss_latency::total 27014.136286                       # average ReadReq miss latency
system.cpu.dcache.WriteReq_avg_miss_latency::.cpu.data 33965.687369                       # average WriteReq miss latency
system.cpu.dcache.WriteReq_avg_miss_latency::total 33965.687369                       # average WriteReq miss latency
system.cpu.dcache.demand_avg_miss_latency::.cpu.data 28925.698781                       # average overall miss latency
[...]
system.l3cache.tags.occ_blocks::.cpu.data 15577.139951                       # Average occupied blocks per requestor
system.l3cache.tags.occ_percent::.cpu.inst     0.020445                       # Average percentage of cache occupancy
system.l3cache.tags.occ_percent::.cpu.data     0.475377                       # Average percentage of cache occupancy
system.l3cache.tags.occ_percent::total       0.495822                       # Average percentage of cache occupancy
system.l3cache.tags.occ_task_id_blocks::1024        27459                       # Occupied blocks per task id
system.l3cache.tags.age_task_id_blocks_1024::0           60                       # Occupied blocks per task id
system.l3cache.tags.age_task_id_blocks_1024::3         1924                       # Occupied blocks per task id
system.l3cache.tags.age_task_id_blocks_1024::4        25475                       # Occupied blocks per task id
system.l3cache.tags.occ_task_id_percent::1024     0.837982                       # Percentage of cache occupancy per task id
system.l3cache.tags.tag_accesses              4570291                       # Number of tag accesses
system.l3cache.tags.data_accesses             4570291                       # Number of data accesses
system.l3cache.pwrStateResidencyTicks::UNDEFINED  53042235500                       # Cumulative time (in ticks) in various power states
system.l3cache.WritebackDirty_hits::.writebacks       139410                       # number of WritebackDirty hits
system.l3cache.WritebackDirty_hits::total       139410                       # number of WritebackDirty hits
system.l3cache.ReadExReq_hits::.cpu.data            6                       # number of ReadExReq hits
system.l3cache.ReadExReq_hits::total                6                       # number of ReadExReq hits
system.l3cache.ReadSharedReq_hits::.cpu.inst           14                       # number of ReadSharedReq hits
system.l3cache.ReadSharedReq_hits::.cpu.data       117038                       # number of ReadSharedReq hits
system.l3cache.ReadSharedReq_hits::total       117052                       # number of ReadSharedReq hits
system.l3cache.demand_hits::.cpu.inst              14                       # number of demand (read+write) hits
system.l3cache.demand_hits::.cpu.data          117044                       # number of demand (read+write) hits
system.l3cache.demand_hits::total              117058                       # number of demand (read+write) hits
system.l3cache.overall_hits::.cpu.inst             14                       # number of overall hits
system.l3cache.overall_hits::.cpu.data         117044                       # number of overall hits
system.l3cache.overall_hits::total             117058                       # number of overall hits
system.l3cache.ReadExReq_misses::.cpu.data        26391                       # number of ReadExReq misses
system.l3cache.ReadExReq_misses::total          26391                       # number of ReadExReq misses
system.l3cache.ReadSharedReq_misses::.cpu.inst          789                       # number of ReadSharedReq misses
system.l3cache.ReadSharedReq_misses::.cpu.data          279                       # number of ReadSharedReq misses
system.l3cache.ReadSharedReq_misses::total         1068                       # number of ReadSharedReq misses
system.l3cache.demand_misses::.cpu.inst           789                       # number of demand (read+write) misses
system.l3cache.demand_misses::.cpu.data         26670                       # number of demand (read+write) misses
system.l3cache.demand_misses::total             27459                       # number of demand (read+write) misses
system.l3cache.overall_misses::.cpu.inst          789                       # number of overall misses
system.l3cache.overall_misses::.cpu.data        26670                       # number of overall misses
system.l3cache.overall_misses::total            27459                       # number of overall misses
system.l3cache.ReadExReq_miss_latency::.cpu.data   1824667500                       # number of ReadExReq miss cycles
system.l3cache.ReadExReq_miss_latency::total   1824667500                       # number of ReadExReq miss cycles
system.l3cache.ReadSharedReq_miss_latency::.cpu.inst     61521000                       # number of ReadSharedReq miss cycles
system.l3cache.ReadSharedReq_miss_latency::.cpu.data     26893500                       # number of ReadSharedReq miss cycles
system.l3cache.ReadSharedReq_miss_latency::total     88414500                       # number of ReadSharedReq miss cycles
system.l3cache.demand_miss_latency::.cpu.inst     61521000                       # number of demand (read+write) miss cycles
system.l3cache.demand_miss_latency::.cpu.data   1851561000                       # number of demand (read+write) miss cycles
system.l3cache.demand_miss_latency::total   1913082000                       # number of demand (read+write) miss cycles
system.l3cache.overall_miss_latency::.cpu.inst     61521000                       # number of overall miss cycles
system.l3cache.overall_miss_latency::.cpu.data   1851561000                       # number of overall miss cycles
system.l3cache.overall_miss_latency::total   1913082000                       # number of overall miss cycles
system.l3cache.WritebackDirty_accesses::.writebacks       139410                       # number of WritebackDirty accesses(hits+misses)
system.l3cache.WritebackDirty_accesses::total       139410                       # number of WritebackDirty accesses(hits+misses)
system.l3cache.ReadExReq_accesses::.cpu.data        26397                       # number of ReadExReq accesses(hits+misses)
system.l3cache.ReadExReq_accesses::total        26397                       # number of ReadExReq accesses(hits+misses)
system.l3cache.ReadSharedReq_accesses::.cpu.inst          803                       # number of ReadSharedReq accesses(hits+misses)
system.l3cache.ReadSharedReq_accesses::.cpu.data       117317                       # number of ReadSharedReq accesses(hits+misses)
system.l3cache.ReadSharedReq_accesses::total       118120                       # number of ReadSharedReq accesses(hits+misses)
system.l3cache.demand_accesses::.cpu.inst          803                       # number of demand (read+write) accesses
system.l3cache.demand_accesses::.cpu.data       143714                       # number of demand (read+write) accesses
system.l3cache.demand_accesses::total          144517                       # number of demand (read+write) accesses
system.l3cache.overall_accesses::.cpu.inst          803                       # number of overall (read+write) accesses
system.l3cache.overall_accesses::.cpu.data       143714                       # number of overall (read+write) accesses
system.l3cache.overall_accesses::total         144517                       # number of overall (read+write) accesses
system.l3cache.ReadExReq_miss_rate::.cpu.data     0.999773                       # miss rate for ReadExReq accesses
system.l3cache.ReadExReq_miss_rate::total     0.999773                       # miss rate for ReadExReq accesses
system.l3cache.ReadSharedReq_miss_rate::.cpu.inst     0.982565                       # miss rate for ReadSharedReq accesses
system.l3cache.ReadSharedReq_miss_rate::.cpu.data     0.002378                       # miss rate for ReadSharedReq accesses
system.l3cache.ReadSharedReq_miss_rate::total     0.009042                       # miss rate for ReadSharedReq accesses
system.l3cache.demand_miss_rate::.cpu.inst     0.982565                       # miss rate for demand accesses
system.l3cache.demand_miss_rate::.cpu.data     0.185577                       # miss rate for demand accesses
system.l3cache.demand_miss_rate::total       0.190005                       # miss rate for demand accesses
system.l3cache.overall_miss_rate::.cpu.inst     0.982565                       # miss rate for overall accesses
system.l3cache.overall_miss_rate::.cpu.data     0.185577                       # miss rate for overall accesses
system.l3cache.overall_miss_rate::total      0.190005                       # miss rate for overall accesses
system.l3cache.ReadExReq_avg_miss_latency::.cpu.data 69139.763556                       # average ReadExReq miss latency
system.l3cache.ReadExReq_avg_miss_latency::total 69139.763556                       # average ReadExReq miss latency
system.l3cache.ReadSharedReq_avg_miss_latency::.cpu.inst 77973.384030                       # average ReadSharedReq miss latency
system.l3cache.ReadSharedReq_avg_miss_latency::.cpu.data 96392.473118                       # average ReadSharedReq miss latency
system.l3cache.ReadSharedReq_avg_miss_latency::total 82785.112360                       # average ReadSharedReq miss latency
system.l3cache.demand_avg_miss_latency::.cpu.inst 77973.384030                       # average overall miss latency
system.l3cache.demand_avg_miss_latency::.cpu.data 69424.859393                       # average overall miss latency
system.l3cache.demand_avg_miss_latency::total 69670.490550                       # average overall miss latency
system.l3cache.overall_avg_miss_latency::.cpu.inst 77973.384030                       # average overall miss latency
system.l3cache.overall_avg_miss_latency::.cpu.data 69424.859393                       # average overall miss latency
system.l3cache.overall_avg_miss_latency::total 69670.490550                       # average overall miss latency
system.l3cache.blocked_cycles::no_mshrs             0                       # number of cycles access was blocked
system.l3cache.blocked_cycles::no_targets            0                       # number of cycles access was blocked
system.l3cache.blocked::no_mshrs                    0                       # number of cycles access was blocked
system.l3cache.blocked::no_targets                  0                       # number of cycles access was blocked
system.l3cache.avg_blocked_cycles::no_mshrs          nan                       # average number of cycles each access was blocked
system.l3cache.avg_blocked_cycles::no_targets          nan                       # average number of cycles each access was blocked
system.l3cache.ReadExReq_mshr_misses::.cpu.data        26391                       # number of ReadExReq MSHR misses
system.l3cache.ReadExReq_mshr_misses::total        26391                       # number of ReadExReq MSHR misses
system.l3cache.ReadSharedReq_mshr_misses::.cpu.inst          789                       # number of ReadSharedReq MSHR misses
system.l3cache.ReadSharedReq_mshr_misses::.cpu.data          279                       # number of ReadSharedReq MSHR misses
system.l3cache.ReadSharedReq_mshr_misses::total         1068                       # number of ReadSharedReq MSHR misses
system.l3cache.demand_mshr_misses::.cpu.inst          789                       # number of demand (read+write) MSHR misses
system.l3cache.demand_mshr_misses::.cpu.data        26670                       # number of demand (read+write) MSHR misses
system.l3cache.demand_mshr_misses::total        27459                       # number of demand (read+write) MSHR misses
system.l3cache.overall_mshr_misses::.cpu.inst          789                       # number of overall MSHR misses
system.l3cache.overall_mshr_misses::.cpu.data        26670                       # number of overall MSHR misses
system.l3cache.overall_mshr_misses::total        27459                       # number of overall MSHR misses
system.l3cache.ReadExReq_mshr_miss_latency::.cpu.data   1771885500                       # number of ReadExReq MSHR miss cycles
system.l3cache.ReadExReq_mshr_miss_latency::total   1771885500                       # number of ReadExReq MSHR miss cycles
system.l3cache.ReadSharedReq_mshr_miss_latency::.cpu.inst     59943000                       # number of ReadSharedReq MSHR miss cycles
system.l3cache.ReadSharedReq_mshr_miss_latency::.cpu.data     26335500                       # number of ReadSharedReq MSHR miss cycles
system.l3cache.ReadSharedReq_mshr_miss_latency::total     86278500                       # number of ReadSharedReq MSHR miss cycles
system.l3cache.demand_mshr_miss_latency::.cpu.inst     59943000                       # number of demand (read+write) MSHR miss cycles
system.l3cache.demand_mshr_miss_latency::.cpu.data   1798221000                       # number of demand (read+write) MSHR miss cycles
system.l3cache.demand_mshr_miss_latency::total   1858164000                       # number of demand (read+write) MSHR miss cycles
system.l3cache.overall_mshr_miss_latency::.cpu.inst     59943000                       # number of overall MSHR miss cycles
system.l3cache.overall_mshr_miss_latency::.cpu.data   1798221000                       # number of overall MSHR miss cycles
system.l3cache.overall_mshr_miss_latency::total   1858164000                       # number of overall MSHR miss cycles
system.l3cache.ReadExReq_mshr_miss_rate::.cpu.data     0.999773                       # mshr miss rate for ReadExReq accesses
system.l3cache.ReadExReq_mshr_miss_rate::total     0.999773                       # mshr miss rate for ReadExReq accesses
system.l3cache.ReadSharedReq_mshr_miss_rate::.cpu.inst     0.982565                       # mshr miss rate for ReadSharedReq accesses
system.l3cache.ReadSharedReq_mshr_miss_rate::.cpu.data     0.002378                       # mshr miss rate for ReadSharedReq accesses
system.l3cache.ReadSharedReq_mshr_miss_rate::total     0.009042                       # mshr miss rate for ReadSharedReq accesses
system.l3cache.demand_mshr_miss_rate::.cpu.inst     0.982565                       # mshr miss rate for demand accesses
system.l3cache.demand_mshr_miss_rate::.cpu.data     0.185577                       # mshr miss rate for demand accesses
system.l3cache.demand_mshr_miss_rate::total     0.190005                       # mshr miss rate for demand accesses
system.l3cache.overall_mshr_miss_rate::.cpu.inst     0.982565                       # mshr miss rate for overall accesses
system.l3cache.overall_mshr_miss_rate::.cpu.data     0.185577                       # mshr miss rate for overall accesses
system.l3cache.overall_mshr_miss_rate::total     0.190005                       # mshr miss rate for overall accesses
system.l3cache.ReadExReq_avg_mshr_miss_latency::.cpu.data 67139.763556                       # average ReadExReq mshr miss latency
system.l3cache.ReadExReq_avg_mshr_miss_latency::total 67139.763556                       # average ReadExReq mshr miss latency
system.l3cache.ReadSharedReq_avg_mshr_miss_latency::.cpu.inst 75973.384030                       # average ReadSharedReq mshr miss latency
system.l3cache.ReadSharedReq_avg_mshr_miss_latency::.cpu.data 94392.473118                       # average ReadSharedReq mshr miss latency
system.l3cache.ReadSharedReq_avg_mshr_miss_latency::total 80785.112360                       # average ReadSharedReq mshr miss latency
system.l3cache.demand_avg_mshr_miss_latency::.cpu.inst 75973.384030                       # average overall mshr miss latency
system.l3cache.demand_avg_mshr_miss_latency::.cpu.data 67424.859393                       # average overall mshr miss latency
system.l3cache.demand_avg_mshr_miss_latency::total 67670.490550                       # average overall mshr miss latency
system.l3cache.overall_avg_mshr_miss_latency::.cpu.inst 75973.384030                       # average overall mshr miss latency
system.l3cache.overall_avg_mshr_miss_latency::.cpu.data 67424.859393                       # average overall mshr miss latency
system.l3cache.overall_avg_mshr_miss_latency::total 67670.490550                       # average overall mshr miss latency
system.l3cache.replacements                         0                       # number of replacements
system.membus.snoop_filter.tot_requests         27459                       # Total number of requests made to the snoop filter.
system.membus.snoop_filter.hit_single_requests            0                       # Number of requests hitting in the snoop filter with a single holder of the requested data.
system.membus.snoop_filter.hit_multi_requests            0                       # Number of requests hitting in the snoop filter with multiple (>1) holders of the requested data.
system.membus.snoop_filter.tot_snoops               0                       # Total number of snoops made to the snoop filter.
system.membus.snoop_filter.hit_single_snoops            0                       # Number of snoops hitting in the snoop filter with a single holder of the requested data.
system.membus.snoop_filter.hit_multi_snoops            0                       # Number of snoops hitting in the snoop filter with multiple (>1) holders of the requested data.
system.membus.pwrStateResidencyTicks::UNDEFINED  53042235500                       # Cumulative time (in ticks) in various power states
system.membus.trans_dist::ReadResp               1068                       # Transaction distribution
system.membus.trans_dist::ReadExReq             26391                       # Transaction distribution
system.membus.trans_dist::ReadExResp            26391                       # Transaction distribution
system.membus.trans_dist::ReadSharedReq          1068                       # Transaction distribution
system.membus.pkt_count_system.l3cache.mem_side::system.mem_ctrl.port        54918                       # Packet count per connected master and slave (bytes)
system.membus.pkt_count_system.l3cache.mem_side::total        54918                       # Packet count per connected master and slave (bytes)
system.membus.pkt_count::total                  54918                       # Packet count per connected master and slave (bytes)
system.membus.pkt_size_system.l3cache.mem_side::system.mem_ctrl.port      1757376                       # Cumulative packet size per connected master and slave (bytes)
system.membus.pkt_size_system.l3cache.mem_side::total      1757376                       # Cumulative packet size per connected master and slave (bytes)
system.membus.pkt_size::total                 1757376                       # Cumulative packet size per connected master and slave (bytes)
system.membus.snoops                                0                       # Total snoops (count)
system.membus.snoopTraffic                          0                       # Total snoop traffic (bytes)
system.membus.snoop_fanout::samples             27459                       # Request fanout histogram
system.membus.snoop_fanout::mean                    0                       # Request fanout histogram
system.membus.snoop_fanout::stdev                   0                       # Request fanout histogram
system.membus.snoop_fanout::underflows              0      0.00%      0.00% # Request fanout histogram
system.membus.snoop_fanout::0                   27459    100.00%    100.00% # Request fanout histogram
system.membus.snoop_fanout::1                       0      0.00%    100.00% # Request fanout histogram
system.membus.snoop_fanout::overflows               0      0.00%    100.00% # Request fanout histogram
system.membus.snoop_fanout::min_value               0                       # Request fanout histogram
system.membus.snoop_fanout::max_value               0                       # Request fanout histogram
system.membus.snoop_fanout::total               27459                       # Request fanout histogram
system.membus.reqLayer0.occupancy            13729500                       # Layer occupancy (ticks)
system.membus.reqLayer0.utilization               0.0                       # Layer utilization (%)
system.membus.respLayer0.occupancy           74009000                       # Layer occupancy (ticks)
system.membus.respLayer0.utilization              0.1                       # Layer utilization (%)

---------- End Simulation Statistics   ----------