
---------- Begin Simulation Statistics ----------
sim_seconds                                  0.043792                       # Number of seconds simulated
sim_ticks                                 43791776500                       # Number of ticks simulated
final_tick                                43791776500                       # Number of ticks from beginning of simulation (restored from checkpoints and never reset)
sim_freq                                 1000000000000                       # Frequency of simulated ticks
host_inst_rate                                 285859                       # Simulator instruction rate (inst/s)
host_op_rate                                   530923                       # Simulator op (including micro ops) rate (op/s)
host_tick_rate                              147063045                       # Simulator tick rate (ticks/s)
host_mem_usage                                 661828                       # Number of bytes of host memory used
host_seconds                                   297.78                       # Real time elapsed on the host
sim_insts                                    85121742                       # Number of instructions simulated
sim_ops                                     158095973                       # Number of ops (including micro ops) simulated
system.clk_domain.voltage_domain.voltage            1                       # Voltage in Volts
system.clk_domain.clock                           500                       # Clock period in ticks
system.mem_ctrl.pwrStateResidencyTicks::UNDEFINED  43791776500                       # Cumulative time (in ticks) in various power states
system.mem_ctrl.bytes_read::.cpu.inst           53056                       # Number of bytes read from this memory
system.mem_ctrl.bytes_read::.cpu.data         1707072                       # Number of bytes read from this memory
system.mem_ctrl.bytes_read::total             1760128                       # Number of bytes read from this memory
system.mem_ctrl.bytes_inst_read::.cpu.inst        53056                       # Number of instructions bytes read from this memory
system.mem_ctrl.bytes_inst_read::total          53056                       # Number of instructions bytes read from this memory
system.mem_ctrl.num_reads::.cpu.inst              829                       # Number of read requests responded to by this memory
system.mem_ctrl.num_reads::.cpu.data            26673                       # Number of read requests responded to by this memory
system.mem_ctrl.num_reads::total                27502                       # Number of read requests responded to by this memory
system.mem_ctrl.bw_read::.cpu.inst            1211552                       # Total read bandwidth from this memory (bytes/s)
system.mem_ctrl.bw_read::.cpu.data           38981565                       # Total read bandwidth from this memory (bytes/s)
system.mem_ctrl.bw_read::total               40193117                       # Total read bandwidth from this memory (bytes/s)
system.mem_ctrl.bw_inst_read::.cpu.inst       1211552                       # Instruction read bandwidth from this memory (bytes/s)
system.mem_ctrl.bw_inst_read::total           1211552                       # Instruction read bandwidth from this memory (bytes/s)
system.mem_ctrl.bw_total::.cpu.inst           1211552                       # Total bandwidth to/from this memory (bytes/s)
system.mem_ctrl.bw_total::.cpu.data          38981565                       # Total bandwidth to/from this memory (bytes/s)
system.mem_ctrl.bw_total::total              40193117                       # Total bandwidth to/from this memory (bytes/s)
system.mem_ctrl.avgPriority_.cpu.inst::samples       829.00                       # Average QoS priority value for accepted requests
system.mem_ctrl.avgPriority_.cpu.data::samples     26673.00                       # Average QoS priority value for accepted requests
system.mem_ctrl.priorityMinLatency       0.000000018750                       # per QoS priority minimum request to response latency (s)
system.mem_ctrl.priorityMaxLatency       0.000001099750                       # per QoS priority maximum request to response latency (s)
system.mem_ctrl.numReadWriteTurnArounds             0                       # Number of turnarounds from READ to WRITE
system.mem_ctrl.numWriteReadTurnArounds             0                       # Number of turnarounds from WRITE to READ
system.mem_ctrl.numStayReadState                59914                       # Number of times bus staying in READ state
system.mem_ctrl.numStayWriteState                   0                       # Number of times bus staying in WRITE state
system.mem_ctrl.readReqs                        27502                       # Number of read requests accepted
system.mem_ctrl.writeReqs                           0                       # Number of write requests accepted
system.mem_ctrl.readBursts                      27502                       # Number of DRAM read bursts, including those serviced by the write queue
system.mem_ctrl.writeBursts                         0                       # Number of DRAM write bursts, including those merged in the write queue
system.mem_ctrl.bytesReadDRAM                 1760128                       # Total number of bytes read from DRAM
system.mem_ctrl.bytesReadWrQ                        0                       # Total number of bytes read from write queue
system.mem_ctrl.bytesWritten                        0                       # Total number of bytes written to DRAM
system.mem_ctrl.bytesReadSys                  1760128                       # Total read bytes from the system interface side
system.mem_ctrl.bytesWrittenSys                     0                       # Total written bytes from the system interface side
system.mem_ctrl.servicedByWrQ                       0                       # Number of DRAM read bursts serviced by the write queue
system.mem_ctrl.mergedWrBursts                      0                       # Number of DRAM write bursts merged with an existing one
system.mem_ctrl.neitherReadNorWriteReqs             0                       # Number of requests that are neither read nor write
system.mem_ctrl.perBankRdBursts::0               1868                       # Per bank write bursts
system.mem_ctrl.perBankRdBursts::1               1677                       # Per bank write bursts
system.mem_ctrl.perBankRdBursts::2               1656                       # Per bank write bursts
system.mem_ctrl.perBankRdBursts::3               1679                       # Per bank write bursts
system.mem_ctrl.perBankRdBursts::4               1692                       # Per bank write bursts
system.mem_ctrl.perBankRdBursts::5               1679                       # Per bank write bursts
system.mem_ctrl.perBankRdBursts::6               1737                       # Per bank write bursts
system.mem_ctrl.perBankRdBursts::7               1763                       # Per bank write bursts
system.mem_ctrl.perBankRdBursts::8               1703                       # Per bank write bursts
system.mem_ctrl.perBankRdBursts::9               1592                       # Per bank write bursts
system.mem_ctrl.perBankRdBursts::10              1678                       # Per bank write bursts
system.mem_ctrl.perBankRdBursts::11              1652                       # Per bank write bursts
system.mem_ctrl.perBankRdBursts::12              1674                       # Per bank write bursts
system.mem_ctrl.perBankRdBursts::13              1817                       # Per bank write bursts
system.mem_ctrl.perBankRdBursts::14              1861                       # Per bank write bursts
system.mem_ctrl.perBankRdBursts::15              1774                       # Per bank write bursts
system.mem_ctrl.perBankWrBursts::0                  0                       # Per bank write bursts
system.mem_ctrl.perBankWrBursts::1                  0                       # Per bank write bursts
system.mem_ctrl.perBankWrBursts::2                  0                       # Per bank write bursts
system.mem_ctrl.perBankWrBursts::3                  0                       # Per bank write bursts
system.mem_ctrl.perBankWrBursts::4                  0                       # Per bank write bursts
system.mem_ctrl.perBankWrBursts::5                  0                       # Per bank write bursts
system.mem_ctrl.perBankWrBursts::6                  0                       # Per bank write bursts
system.mem_ctrl.perBankWrBursts::7                  0                       # Per bank write bursts
system.mem_ctrl.perBankWrBursts::8                  0                       # Per bank write bursts
system.mem_ctrl.perBankWrBursts::9                  0                       # Per bank write bursts
system.mem_ctrl.perBankWrBursts::10                 0                       # Per bank write bursts
system.mem_ctrl.perBankWrBursts::11                 0                       # Per bank write bursts
system.mem_ctrl.perBankWrBursts::12                 0                       # Per bank write bursts
system.mem_ctrl.perBankWrBursts::13                 0                       # Per bank write bursts
system.mem_ctrl.perBankWrBursts::14                 0                       # Per bank write bursts
system.mem_ctrl.perBankWrBursts::15                 0                       # Per bank write bursts
system.mem_ctrl.numRdRetry                          0                       # Number of times read queue was full causing retry
system.mem_ctrl.numWrRetry                          0                       # Number of times write queue was full causing retry
system.mem_ctrl.totGap                    43791693000                       # Total gap between requests
system.mem_ctrl.readPktSize::0                      0                       # Read request sizes (log2)
system.mem_ctrl.readPktSize::1                      0                       # Read request sizes (log2)
system.mem_ctrl.readPktSize::2                      0                       # Read request sizes (log2)
system.mem_ctrl.readPktSize::3                      0                       # Read request sizes (log2)
system.mem_ctrl.readPktSize::4                      0                       # Read request sizes (log2)
system.mem_ctrl.readPktSize::5                      0                       # Read request sizes (log2)
system.mem_ctrl.readPktSize::6                  27502                       # Read request sizes (log2)
system.mem_ctrl.writePktSize::0                     0                       # Write request sizes (log2)
system.mem_ctrl.writePktSize::1                     0                       # Write request sizes (log2)
system.mem_ctrl.writePktSize::2                     0                       # Write request sizes (log2)
system.mem_ctrl.writePktSize::3                     0                       # Write request sizes (log2)
system.mem_ctrl.writePktSize::4                     0                       # Write request sizes (log2)
system.mem_ctrl.writePktSize::5                     0                       # Write request sizes (log2)
system.mem_ctrl.writePktSize::6                     0                       # Write request sizes (log2)
system.mem_ctrl.rdQLenPdf::0                    27081                       # What read queue length does an incoming req see
system.mem_ctrl.rdQLenPdf::1                      325                       # What read queue length does an incoming req see
system.mem_ctrl.rdQLenPdf::2                       78                       # What read queue length does an incoming req see
system.mem_ctrl.rdQLenPdf::3                       14                       # What read queue length does an incoming req see
system.mem_ctrl.rdQLenPdf::4                        4                       # What read queue length does an incoming req see
system.mem_ctrl.rdQLenPdf::5                        0                       # What read queue length does an incoming req see
system.mem_ctrl.rdQLenPdf::6                        0                       # What read queue length does an incoming req see
system.mem_ctrl.rdQLenPdf::7                        0                       # What read queue length does an incoming req see
system.mem_ctrl.rdQLenPdf::8                        0                       # What read queue length does an incoming req see
system.mem_ctrl.rdQLenPdf::9                        0                       # What read queue length does an incoming req see
system.mem_ctrl.rdQLenPdf::10                       0                       # What read queue length does an incoming req see
system.mem_ctrl.rdQLenPdf::11                       0                       # What read queue length does an incoming req see
system.mem_ctrl.rdQLenPdf::12                       0                       # What read queue length does an incoming req see
system.mem_ctrl.rdQLenPdf::13                       0                       # What read queue length does an incoming req see
system.mem_ctrl.rdQLenPdf::14                       0                       # What read queue length does an incoming req see
system.mem_ctrl.rdQLenPdf::15                       0                       # What read queue length does an incoming req see
system.mem_ctrl.rdQLenPdf::16                       0                       # What read queue length does an incoming req see
system.mem_ctrl.rdQLenPdf::17                       0                       # What read queue length does an incoming req see
system.mem_ctrl.rdQLenPdf::18                       0                       # What read queue length does an incoming req see
system.mem_ctrl.rdQLenPdf::19                       0                       # What read queue length does an incoming req see
system.mem_ctrl.rdQLenPdf::20                       0                       # What read queue length does an incoming req see
system.mem_ctrl.rdQLenPdf::21                       0                       # What read queue length does an incoming req see
system.mem_ctrl.rdQLenPdf::22                       0                       # What read queue length does an incoming req see
system.mem_ctrl.rdQLenPdf::23                       0                       # What read queue length does an incoming req see
system.mem_ctrl.rdQLenPdf::24                       0                       # What read queue length does an incoming req see
system.mem_ctrl.rdQLenPdf::25                       0                       # What read queue length does an incoming req see
system.mem_ctrl.rdQLenPdf::26                       0                       # What read queue length does an incoming req see
system.mem_ctrl.rdQLenPdf::27                       0                       # What read queue length does an incoming req see
system.mem_ctrl.rdQLenPdf::28                       0                       # What read queue length does an incoming req see
system.mem_ctrl.rdQLenPdf::29                       0                       # What read queue length does an incoming req see
system.mem_ctrl.rdQLenPdf::30                       0                       # What read queue length does an incoming req see
system.mem_ctrl.rdQLenPdf::31                       0                       # What read queue length does an incoming req see
system.mem_ctrl.wrQLenPdf::0                        0                       # What write queue length does an incoming req see
system.mem_ctrl.wrQLenPdf::1                        0                       # What write queue length does an incoming req see
system.mem_ctrl.wrQLenPdf::2                        0                       # What write queue length does an incoming req see
system.mem_ctrl.wrQLenPdf::3                        0                       # What write queue length does an incoming req see
system.mem_ctrl.wrQLenPdf::4                        0                       # What write queue length does an incoming req see
system.mem_ctrl.wrQLenPdf::5                        0                       # What write queue length does an incoming req see
system.mem_ctrl.wrQLenPdf::6                        0                       # What write queue length does an incoming req see
system.mem_ctrl.wrQLenPdf::7                        0                       # What write queue length does an incoming req see
system.mem_ctrl.wrQLenPdf::8                        0                       # What write queue length does an incoming req see
system.mem_ctrl.wrQLenPdf::9                        0                       # What write queue length does an incoming req see
system.mem_ctrl.wrQLenPdf::10                       0                       # What write queue length does an incoming req see
system.mem_ctrl.wrQLenPdf::11                       0                       # What write queue length does an incoming req see
system.mem_ctrl.wrQLenPdf::12                       0                       # What write queue length does an incoming req see
system.mem_ctrl.wrQLenPdf::13                       0                       # What write queue length does an incoming req see
system.mem_ctrl.wrQLenPdf::14                       0                       # What write queue length does an incoming req see
system.mem_ctrl.wrQLenPdf::15                       0                       # What write queue length does an incoming req see
system.mem_ctrl.wrQLenPdf::16                       0                       # What write queue length does an incoming req see
system.mem_ctrl.wrQLenPdf::17                       0                       # What write queue length does an incoming req see
system.mem_ctrl.wrQLenPdf::18                       0                       # What write queue length does an incoming req see
system.mem_ctrl.wrQLenPdf::19                       0                       # What write queue length does an incoming req see
system.mem_ctrl.wrQLenPdf::20                       0                       # What write queue length does an incoming req see
system.mem_ctrl.wrQLenPdf::21                       0                       # What write queue length does an incoming req see
system.mem_ctrl.wrQLenPdf::22                       0                       # What write queue length does an incoming req see
system.mem_ctrl.wrQLenPdf::23                       0                       # What write queue length does an incoming req see
system.mem_ctrl.wrQLenPdf::24                       0                       # What write queue length does an incoming req see
system.mem_ctrl.wrQLenPdf::25                       0                       # What write queue length does an incoming req see
system.mem_ctrl.wrQLenPdf::26                       0                       # What write queue length does an incoming req see
system.mem_ctrl.wrQLenPdf::27                       0                       # What write queue length does an incoming req see
system.mem_ctrl.wrQLenPdf::28                       0                       # What write queue length does an incoming req see
system.mem_ctrl.wrQLenPdf::29                       0                       # What write queue length does an incoming req see
system.mem_ctrl.wrQLenPdf::30                       0                       # What write queue length does an incoming req see
system.mem_ctrl.wrQLenPdf::31                       0                       # What write queue length does an incoming req see
system.mem_ctrl.wrQLenPdf::32                       0                       # What write queue length does an incoming req see
system.mem_ctrl.wrQLenPdf::33                       0                       # What write queue length does an incoming req see
system.mem_ctrl.wrQLenPdf::34                       0                       # What write queue length does an incoming req see
system.mem_ctrl.wrQLenPdf::35                       0                       # What write queue length does an incoming req see
system.mem_ctrl.wrQLenPdf::36                       0                       # What write queue length does an incoming req see
system.mem_ctrl.wrQLenPdf::37                       0                       # What write queue length does an incoming req see
system.mem_ctrl.wrQLenPdf::38                       0                       # What write queue length does an incoming req see
system.mem_ctrl.wrQLenPdf::39                       0                       # What write queue length does an incoming req see
system.mem_ctrl.wrQLenPdf::40                       0                       # What write queue length does an incoming req see
system.mem_ctrl.wrQLenPdf::41                       0                       # What write queue length does an incoming req see
system.mem_ctrl.wrQLenPdf::42                       0                       # What write queue length does an incoming req see
system.mem_ctrl.wrQLenPdf::43                       0                       # What write queue length does an incoming req see
system.mem_ctrl.wrQLenPdf::44                       0                       # What write queue length does an incoming req see
system.mem_ctrl.wrQLenPdf::45                       0                       # What write queue length does an incoming req see
system.mem_ctrl.wrQLenPdf::46                       0                       # What write queue length does an incoming req see
system.mem_ctrl.wrQLenPdf::47                       0                       # What write queue length does an incoming req see
system.mem_ctrl.wrQLenPdf::48                       0                       # What write queue length does an incoming req see
system.mem_ctrl.wrQLenPdf::49                       0                       # What write queue length does an incoming req see
system.mem_ctrl.wrQLenPdf::50                       0                       # What write queue length does an incoming req see
system.mem_ctrl.wrQLenPdf::51                       0                       # What write queue length does an incoming req see
system.mem_ctrl.wrQLenPdf::52                       0                       # What write queue length does an incoming req see
system.mem_ctrl.wrQLenPdf::53                       0                       # What write queue length does an incoming req see
system.mem_ctrl.wrQLenPdf::54                       0                       # What write queue length does an incoming req see
system.mem_ctrl.wrQLenPdf::55                       0                       # What write queue length does an incoming req see
system.mem_ctrl.wrQLenPdf::56                       0                       # What write queue length does an incoming req see
system.mem_ctrl.wrQLenPdf::57                       0                       # What write queue length does an incoming req see
system.mem_ctrl.wrQLenPdf::58                       0                       # What write queue length does an incoming req see
system.mem_ctrl.wrQLenPdf::59                       0                       # What write queue length does an incoming req see
system.mem_ctrl.wrQLenPdf::60                       0                       # What write queue length does an incoming req see
system.mem_ctrl.wrQLenPdf::61                       0                       # What write queue length does an incoming req see
system.mem_ctrl.wrQLenPdf::62                       0                       # What write queue length does an incoming req see
system.mem_ctrl.wrQLenPdf::63                       0                       # What write queue length does an incoming req see
system.mem_ctrl.bytesPerActivate::samples         5429                       # Bytes accessed per row activation
system.mem_ctrl.bytesPerActivate::mean     323.854854                       # Bytes accessed per row activation
system.mem_ctrl.bytesPerActivate::gmean    301.267206                       # Bytes accessed per row activation
system.mem_ctrl.bytesPerActivate::stdev    112.490947                       # Bytes accessed per row activation
system.mem_ctrl.bytesPerActivate::0-127           263      4.84%      4.84% # Bytes accessed per row activation
system.mem_ctrl.bytesPerActivate::128-255          309      5.69%     10.54% # Bytes accessed per row activation
system.mem_ctrl.bytesPerActivate::256-383         3380     62.26%     72.79% # Bytes accessed per row activation
system.mem_ctrl.bytesPerActivate::384-511         1374     25.31%     98.10% # Bytes accessed per row activation
system.mem_ctrl.bytesPerActivate::512-639           13      0.24%     98.34% # Bytes accessed per row activation
system.mem_ctrl.bytesPerActivate::640-767           19      0.35%     98.69% # Bytes accessed per row activation
system.mem_ctrl.bytesPerActivate::768-895            3      0.06%     98.75% # Bytes accessed per row activation
system.mem_ctrl.bytesPerActivate::896-1023            8      0.15%     98.89% # Bytes accessed per row activation
system.mem_ctrl.bytesPerActivate::1024-1151           60      1.11%    100.00% # Bytes accessed per row activation
system.mem_ctrl.bytesPerActivate::total          5429                       # Bytes accessed per row activation
system.mem_ctrl.masterReadBytes::.cpu.inst        53056                       # Per-master bytes read from memory
system.mem_ctrl.masterReadBytes::.cpu.data      1707072                       # Per-master bytes read from memory
system.mem_ctrl.masterReadRate::.cpu.inst 1211551.671122545144                       # Per-master bytes read from memory rate (Bytes/sec)
system.mem_ctrl.masterReadRate::.cpu.data 38981565.408747464418                       # Per-master bytes read from memory rate (Bytes/sec)
system.mem_ctrl.masterReadAccesses::.cpu.inst          829                       # Per-master read serviced memory accesses
system.mem_ctrl.masterReadAccesses::.cpu.data        26673                       # Per-master read serviced memory accesses
system.mem_ctrl.masterReadTotalLat::.cpu.inst     35812250                       # Per-master read total memory access latency
system.mem_ctrl.masterReadTotalLat::.cpu.data    907376000                       # Per-master read total memory access latency
system.mem_ctrl.masterReadAvgLat::.cpu.inst     43199.34                       # Per-master read average memory access latency
system.mem_ctrl.masterReadAvgLat::.cpu.data     34018.52                       # Per-master read average memory access latency
system.mem_ctrl.totQLat                     427525750                       # Total ticks spent queuing
system.mem_ctrl.totMemAccLat                943188250                       # Total ticks spent from burst creation until serviced by the DRAM
system.mem_ctrl.totBusLat                   137510000                       # Total ticks spent in databus transfers
system.mem_ctrl.avgQLat                      15545.26                       # Average queueing delay per DRAM burst
system.mem_ctrl.avgBusLat                     5000.00                       # Average bus latency per DRAM burst
system.mem_ctrl.avgMemAccLat                 34295.26                       # Average memory access latency per DRAM burst
system.mem_ctrl.avgRdBW                         40.19                       # Average DRAM read bandwidth in MiByte/s
system.mem_ctrl.avgWrBW                          0.00                       # Average achieved write bandwidth in MiByte/s
system.mem_ctrl.avgRdBWSys                      40.19                       # Average system read bandwidth in MiByte/s
system.mem_ctrl.avgWrBWSys                       0.00                       # Average system write bandwidth in MiByte/s
system.mem_ctrl.peakBW                       12800.00                       # Theoretical peak bandwidth in MiByte/s
system.mem_ctrl.busUtil                          0.31                       # Data bus utilization in percentage
system.mem_ctrl.busUtilRead                      0.31                       # Data bus utilization in percentage for reads
system.mem_ctrl.busUtilWrite                     0.00                       # Data bus utilization in percentage for writes
system.mem_ctrl.avgRdQLen                        1.00                       # Average read queue length when enqueuing
system.mem_ctrl.avgWrQLen                        0.00                       # Average write queue length when enqueuing
system.mem_ctrl.readRowHits                     22064                       # Number of row buffer hits during reads
system.mem_ctrl.writeRowHits                        0                       # Number of row buffer hits during writes
system.mem_ctrl.readRowHitRate                  80.23                       # Row buffer hit rate for reads
system.mem_ctrl.writeRowHitRate                   nan                       # Row buffer hit rate for writes
system.mem_ctrl.avgGap                     1592309.40                       # Average gap between requests
system.mem_ctrl.pageHitRate                     80.23                       # Row buffer hit rate, read and write combined
system.mem_ctrl_0.actEnergy                  19492200                       # Energy for activate commands per rank (pJ)
system.mem_ctrl_0.preEnergy                  10337580                       # Energy for precharge commands per rank (pJ)
system.mem_ctrl_0.readEnergy                 98182140                       # Energy for read commands per rank (pJ)
system.mem_ctrl_0.writeEnergy                       0                       # Energy for write commands per rank (pJ)
system.mem_ctrl_0.refreshEnergy          1515087600.000000                       # Energy for refresh commands per rank (pJ)
system.mem_ctrl_0.actBackEnergy             448042230                       # Energy for active background per rank (pJ)
system.mem_ctrl_0.preBackEnergy              33414720                       # Energy for precharge background per rank (pJ)
system.mem_ctrl_0.actPowerDownEnergy       7639035690                       # Energy for active power-down per rank (pJ)
system.mem_ctrl_0.prePowerDownEnergy        529926720                       # Energy for precharge power-down per rank (pJ)
system.mem_ctrl_0.selfRefreshEnergy        5910417240                       # Energy for self refresh per rank (pJ)
system.mem_ctrl_0.totalEnergy             16203936120                       # Total energy per rank (pJ)
system.mem_ctrl_0.averagePower             370.022352                       # Core power per rank (mW)
system.mem_ctrl_0.totalIdleTime           42722034000                       # Total Idle time Per DRAM Rank
system.mem_ctrl_0.memoryStateTime::IDLE      19188500                       # Time in different power states
system.mem_ctrl_0.memoryStateTime::REF      640900000                       # Time in different power states
system.mem_ctrl_0.memoryStateTime::SREF   24589919750                       # Time in different power states
system.mem_ctrl_0.memoryStateTime::PRE_PDN   1379995000                       # Time in different power states
system.mem_ctrl_0.memoryStateTime::ACT      409613750                       # Time in different power states
system.mem_ctrl_0.memoryStateTime::ACT_PDN  16752159500                       # Time in different power states
system.mem_ctrl_1.actEnergy                  19335120                       # Energy for activate commands per rank (pJ)
system.mem_ctrl_1.preEnergy                  10265475                       # Energy for precharge commands per rank (pJ)
system.mem_ctrl_1.readEnergy                 98182140                       # Energy for read commands per rank (pJ)
system.mem_ctrl_1.writeEnergy                       0                       # Energy for write commands per rank (pJ)
system.mem_ctrl_1.refreshEnergy          1526765760.000000                       # Energy for refresh commands per rank (pJ)
system.mem_ctrl_1.actBackEnergy             450737190                       # Energy for active background per rank (pJ)
system.mem_ctrl_1.preBackEnergy              36468480                       # Energy for precharge background per rank (pJ)
system.mem_ctrl_1.actPowerDownEnergy       7554890010                       # Energy for active power-down per rank (pJ)
system.mem_ctrl_1.prePowerDownEnergy        655304640                       # Energy for precharge power-down per rank (pJ)
system.mem_ctrl_1.selfRefreshEnergy        5889031200                       # Energy for self refresh per rank (pJ)
system.mem_ctrl_1.totalEnergy             16240980015                       # Total energy per rank (pJ)
system.mem_ctrl_1.averagePower             370.868261                       # Core power per rank (mW)
system.mem_ctrl_1.totalIdleTime           42708487000                       # Total Idle time Per DRAM Rank
system.mem_ctrl_1.memoryStateTime::IDLE      27190000                       # Time in different power states
system.mem_ctrl_1.memoryStateTime::REF      645840000                       # Time in different power states
system.mem_ctrl_1.memoryStateTime::SREF   24434086500                       # Time in different power states
system.mem_ctrl_1.memoryStateTime::PRE_PDN   1706563250                       # Time in different power states
system.mem_ctrl_1.memoryStateTime::ACT      410021250                       # Time in different power states
system.mem_ctrl_1.memoryStateTime::ACT_PDN  16568075500                       # Time in different power states
system.pwrStateResidencyTicks::UNDEFINED  43791776500                       # Cumulative time (in ticks) in various power states
system.cpu.branchPred.lookups                23741033                       # Number of BP lookups
system.cpu.branchPred.condPredicted          23741033                       # Number of conditional branches predicted
system.cpu.branchPred.condIncorrect            392491                       # Number of conditional branches incorrect
system.cpu.branchPred.BTBLookups             19887441                       # Number of BTB lookups
system.cpu.branchPred.BTBHits                       0                       # Number of BTB hits
system.cpu.branchPred.BTBCorrect                    0                       # Number of correct BTB predictions (this stat may not work properly.
system.cpu.branchPred.BTBHitPct              0.000000                       # BTB Hit Percentage
system.cpu.branchPred.usedRAS                  733215                       # Number of times the RAS was used to get a target.
system.cpu.branchPred.RASInCorrect                761                       # Number of incorrect RAS predictions.
system.cpu.branchPred.indirectLookups        19887441                       # Number of indirect predictor lookups.
system.cpu.branchPred.indirectHits            8396216                       # Number of indirect target hits.
system.cpu.branchPred.indirectMisses         11491225                       # Number of indirect misses.
system.cpu.branchPredindirectMispredicted       288315                       # Number of mispredicted indirect branches.
system.cpu.dtb.walker.pwrStateResidencyTicks::UNDEFINED  43791776500                       # Cumulative time (in ticks) in various power states
system.cpu.dtb.rdAccesses                    19183193                       # TLB accesses on read requests
system.cpu.dtb.wrAccesses                    12072862                       # TLB accesses on write requests
system.cpu.dtb.rdMisses                        104859                       # TLB misses on read requests
system.cpu.dtb.wrMisses                           571                       # TLB misses on write requests
system.cpu.apic_clk_domain.clock                 8000                       # Clock period in ticks
system.cpu.interrupts.pwrStateResidencyTicks::UNDEFINED  43791776500                       # Cumulative time (in ticks) in various power states
system.cpu.itb.walker.pwrStateResidencyTicks::UNDEFINED  43791776500                       # Cumulative time (in ticks) in various power states
system.cpu.itb.rdAccesses                           0                       # TLB accesses on read requests
system.cpu.itb.wrAccesses                    13845256                       # TLB accesses on write requests
system.cpu.itb.rdMisses                             0                       # TLB misses on read requests
system.cpu.itb.wrMisses                           212                       # TLB misses on write requests
system.cpu.workload.numSyscalls                    86                       # Number of system calls
system.cpu.pwrStateResidencyTicks::ON     43791776500                       # Cumulative time (in ticks) in various power states
system.cpu.numCycles                         87583554                       # number of cpu cycles simulated
system.cpu.numWorkItemsStarted                      0                       # number of work items this cpu started
system.cpu.numWorkItemsCompleted                    0                       # number of work items this cpu completed
system.cpu.fetch.icacheStallCycles             403294                       # Number of cycles fetch is stalled on an Icache miss
system.cpu.fetch.Insts                      101827981                       # Number of instructions fetch has processed
system.cpu.fetch.Branches                    23741033                       # Number of branches that fetch encountered
system.cpu.fetch.predictedBranches            9129431                       # Number of branches that fetch has predicted taken
system.cpu.fetch.Cycles                      86745723                       # Number of cycles fetch has run and was not squashing or blocked
system.cpu.fetch.SquashCycles                  786312                       # Number of cycles fetch has spent squashing
system.cpu.fetch.MiscStallCycles                   97                       # Number of cycles fetch has spent waiting on interrupts, or bad addresses, or out of MSHRs
system.cpu.fetch.PendingTrapStallCycles          1627                       # Number of stall cycles due to pending traps
system.cpu.fetch.PendingQuiesceStallCycles           24                       # Number of stall cycles due to pending quiesce instructions
system.cpu.fetch.IcacheWaitRetryStallCycles           69                       # Number of stall cycles due to full MSHR
system.cpu.fetch.CacheLines                  13845102                       # Number of cache lines fetched
system.cpu.fetch.IcacheSquashes                   588                       # Number of outstanding Icache misses that were squashed
system.cpu.fetch.rateDist::samples           87543990                       # Number of instructions fetched each cycle (Total)
system.cpu.fetch.rateDist::mean              2.154687                       # Number of instructions fetched each cycle (Total)
system.cpu.fetch.rateDist::stdev             1.853230                       # Number of instructions fetched each cycle (Total)
system.cpu.fetch.rateDist::underflows               0      0.00%      0.00% # Number of instructions fetched each cycle (Total)
system.cpu.fetch.rateDist::0                 33172709     37.89%     37.89% # Number of instructions fetched each cycle (Total)
system.cpu.fetch.rateDist::1                  5079614      5.80%     43.69% # Number of instructions fetched each cycle (Total)
system.cpu.fetch.rateDist::2                  4336624      4.95%     48.65% # Number of instructions fetched each cycle (Total)
system.cpu.fetch.rateDist::3                  4943101      5.65%     54.30% # Number of instructions fetched each cycle (Total)
system.cpu.fetch.rateDist::4                 40011942     45.70%    100.00% # Number of instructions fetched each cycle (Total)
system.cpu.fetch.rateDist::overflows                0      0.00%    100.00% # Number of instructions fetched each cycle (Total)
system.cpu.fetch.rateDist::min_value                0                       # Number of instructions fetched each cycle (Total)
system.cpu.fetch.rateDist::max_value                4                       # Number of instructions fetched each cycle (Total)
system.cpu.fetch.rateDist::total             87543990                       # Number of instructions fetched each cycle (Total)
system.cpu.fetch.branchRate                  0.271067                       # Number of branch fetches per cycle
system.cpu.fetch.rate                        1.162638                       # Number of inst fetches per cycle
system.cpu.decode.IdleCycles                 10860659                       # Number of cycles decode is idle
system.cpu.decode.BlockedCycles              31145747                       # Number of cycles decode is blocked
system.cpu.decode.RunCycles                  31100645                       # Number of cycles decode is running
system.cpu.decode.UnblockCycles              14043783                       # Number of cycles decode is unblocking
system.cpu.decode.SquashCycles                 393156                       # Number of cycles decode is squashing
system.cpu.decode.DecodedInsts              175195680                       # Number of instructions handled by decode
system.cpu.decode.SquashedInsts               2121719                       # Number of squashed instructions handled by decode
system.cpu.rename.SquashCycles                 393156                       # Number of cycles rename is squashing
system.cpu.rename.IdleCycles                 18862155                       # Number of cycles rename is idle
system.cpu.rename.BlockCycles                 8035715                       # Number of cycles rename is blocking
system.cpu.rename.serializeStallCycles           5176                       # count of cycles rename stalled for serializing inst
system.cpu.rename.RunCycles                  37055188                       # Number of cycles rename is running
system.cpu.rename.UnblockCycles              23192600                       # Number of cycles rename is unblocking
system.cpu.rename.RenamedInsts              172970507                       # Number of instructions processed by rename
system.cpu.rename.SquashedInsts               1009096                       # Number of squashed instructions processed by rename
system.cpu.rename.ROBFullEvents                347943                       # Number of times rename has blocked due to ROB full
system.cpu.rename.IQFullEvents               11865554                       # Number of times rename has blocked due to IQ full
system.cpu.rename.LQFullEvents                  49555                       # Number of times rename has blocked due to LQ full
system.cpu.rename.SQFullEvents                6153477                       # Number of times rename has blocked due to SQ full
system.cpu.rename.RenamedOperands           193559277                       # Number of destination operands rename has renamed
system.cpu.rename.RenameLookups             439969469                       # Number of register rename lookups that rename has made
system.cpu.rename.int_rename_lookups        254070009                       # Number of integer rename lookups
system.cpu.rename.fp_rename_lookups            304533                       # Number of floating rename lookups
system.cpu.rename.CommittedMaps             177569425                       # Number of HB maps that are committed
system.cpu.rename.UndoneMaps                 15989852                       # Number of HB maps that are undone due to squashing
system.cpu.rename.serializingInsts                114                       # count of serializing insts renamed
system.cpu.rename.tempSerializingInsts            112                       # count of temporary serializing insts renamed
system.cpu.rename.skidInsts                  37700023                       # count of insts added to the skid buffer
system.cpu.memDep0.insertedLoads             20219946                       # Number of loads inserted to the mem dependence unit.
system.cpu.memDep0.insertedStores            12541265                       # Number of stores inserted to the mem dependence unit.
system.cpu.memDep0.conflictingLoads           1508645                       # Number of conflicting loads.
system.cpu.memDep0.conflictingStores           884008                       # Number of conflicting stores.
system.cpu.iq.iqInstsAdded                  171192626                       # Number of instructions added to the IQ (excludes non-spec)
system.cpu.iq.iqNonSpecInstsAdded                 627                       # Number of non-speculative instructions added to the IQ
system.cpu.iq.iqInstsIssued                 164250982                       # Number of instructions issued
system.cpu.iq.iqSquashedInstsIssued           2314510                       # Number of squashed instructions issued
system.cpu.iq.iqSquashedInstsExamined        13097279                       # Number of squashed instructions iterated over during squash; mainly for profiling
system.cpu.iq.iqSquashedOperandsExamined     19221688                       # Number of squashed operands that are examined and possibly removed from graph
system.cpu.iq.iqSquashedNonSpecRemoved            541                       # Number of squashed non-spec instructions that were removed
system.cpu.iq.issued_per_cycle::samples      87543990                       # Number of insts issued each cycle
system.cpu.iq.issued_per_cycle::mean         1.876211                       # Number of insts issued each cycle
system.cpu.iq.issued_per_cycle::stdev        1.038077                       # Number of insts issued each cycle
system.cpu.iq.issued_per_cycle::underflows            0      0.00%      0.00% # Number of insts issued each cycle
system.cpu.iq.issued_per_cycle::0            15702739     17.94%     17.94% # Number of insts issued each cycle
system.cpu.iq.issued_per_cycle::1             5705684      6.52%     24.45% # Number of insts issued each cycle
system.cpu.iq.issued_per_cycle::2            40305655     46.04%     70.49% # Number of insts issued each cycle
system.cpu.iq.issued_per_cycle::3            25385660     29.00%     99.49% # Number of insts issued each cycle
system.cpu.iq.issued_per_cycle::4              444252      0.51%    100.00% # Number of insts issued each cycle
system.cpu.iq.issued_per_cycle::overflows            0      0.00%    100.00% # Number of insts issued each cycle
system.cpu.iq.issued_per_cycle::min_value            0                       # Number of insts issued each cycle
system.cpu.iq.issued_per_cycle::max_value            4                       # Number of insts issued each cycle
system.cpu.iq.issued_per_cycle::total        87543990                       # Number of insts issued each cycle
system.cpu.iq.fu_full::No_OpClass                   0      0.00%      0.00% # attempts to use FU when none available
system.cpu.iq.fu_full::IntAlu                55814224     82.87%     82.87% # attempts to use FU when none available
system.cpu.iq.fu_full::IntMult                      0      0.00%     82.87% # attempts to use FU when none available
system.cpu.iq.fu_full::IntDiv                       0      0.00%     82.87% # attempts to use FU when none available
system.cpu.iq.fu_full::FloatAdd                     0      0.00%     82.87% # attempts to use FU when none available
system.cpu.iq.fu_full::FloatCmp                     0      0.00%     82.87% # attempts to use FU when none available
system.cpu.iq.fu_full::FloatCvt                     0      0.00%     82.87% # attempts to use FU when none available
system.cpu.iq.fu_full::FloatMult                    0      0.00%     82.87% # attempts to use FU when none available
system.cpu.iq.fu_full::FloatMultAcc                 0      0.00%     82.87% # attempts to use FU when none available
system.cpu.iq.fu_full::FloatDiv                     0      0.00%     82.87% # attempts to use FU when none available
system.cpu.iq.fu_full::FloatMisc                    0      0.00%     82.87% # attempts to use FU when none available
system.cpu.iq.fu_full::FloatSqrt                    0      0.00%     82.87% # attempts to use FU when none available
system.cpu.iq.fu_full::SimdAdd                    267      0.00%     82.87% # attempts to use FU when none available
system.cpu.iq.fu_full::SimdAddAcc                   0      0.00%     82.87% # attempts to use FU when none available
system.cpu.iq.fu_full::SimdAlu                     77      0.00%     82.87% # attempts to use FU when none available
system.cpu.iq.fu_full::SimdCmp                      1      0.00%     82.87% # attempts to use FU when none available
system.cpu.iq.fu_full::SimdCvt                     67      0.00%     82.87% # attempts to use FU when none available
system.cpu.iq.fu_full::SimdMisc                   157      0.00%     82.87% # attempts to use FU when none available
system.cpu.iq.fu_full::SimdMult                     0      0.00%     82.87% # attempts to use FU when none available
system.cpu.iq.fu_full::SimdMultAcc                  0      0.00%     82.87% # attempts to use FU when none available
system.cpu.iq.fu_full::SimdShift                  120      0.00%     82.87% # attempts to use FU when none available
system.cpu.iq.fu_full::SimdShiftAcc                 0      0.00%     82.87% # attempts to use FU when none available
system.cpu.iq.fu_full::SimdSqrt                     0      0.00%     82.87% # attempts to use FU when none available
system.cpu.iq.fu_full::SimdFloatAdd                 0      0.00%     82.87% # attempts to use FU when none available
system.cpu.iq.fu_full::SimdFloatAlu                 0      0.00%     82.87% # attempts to use FU when none available
system.cpu.iq.fu_full::SimdFloatCmp                 0      0.00%     82.87% # attempts to use FU when none available
system.cpu.iq.fu_full::SimdFloatCvt                 0      0.00%     82.87% # attempts to use FU when none available
system.cpu.iq.fu_full::SimdFloatDiv                 0      0.00%     82.87% # attempts to use FU when none available
system.cpu.iq.fu_full::SimdFloatMisc                0      0.00%     82.87% # attempts to use FU when none available
system.cpu.iq.fu_full::SimdFloatMult                0      0.00%     82.87% # attempts to use FU when none available
system.cpu.iq.fu_full::SimdFloatMultAcc             0      0.00%     82.87% # attempts to use FU when none available
system.cpu.iq.fu_full::SimdFloatSqrt                0      0.00%     82.87% # attempts to use FU when none available
system.cpu.iq.fu_full::SimdAes                      0      0.00%     82.87% # attempts to use FU when none available
system.cpu.iq.fu_full::SimdAesMix                   0      0.00%     82.87% # attempts to use FU when none available
system.cpu.iq.fu_full::SimdSha1Hash                 0      0.00%     82.87% # attempts to use FU when none available
system.cpu.iq.fu_full::SimdSha1Hash2                0      0.00%     82.87% # attempts to use FU when none available
system.cpu.iq.fu_full::SimdSha256Hash               0      0.00%     82.87% # attempts to use FU when none available
system.cpu.iq.fu_full::SimdSha256Hash2              0      0.00%     82.87% # attempts to use FU when none available
system.cpu.iq.fu_full::SimdShaSigma2                0      0.00%     82.87% # attempts to use FU when none available
system.cpu.iq.fu_full::SimdShaSigma3                0      0.00%     82.87% # attempts to use FU when none available
system.cpu.iq.fu_full::MemRead                8143521     12.09%     94.96% # attempts to use FU when none available
system.cpu.iq.fu_full::MemWrite               3394894      5.04%    100.00% # attempts to use FU when none available
system.cpu.iq.fu_full::FloatMemRead                 0      0.00%    100.00% # attempts to use FU when none available
system.cpu.iq.fu_full::FloatMemWrite                0      0.00%    100.00% # attempts to use FU when none available
system.cpu.iq.fu_full::IprAccess                    0      0.00%    100.00% # attempts to use FU when none available
system.cpu.iq.fu_full::InstPrefetch                 0      0.00%    100.00% # attempts to use FU when none available
system.cpu.iq.FU_type_0::No_OpClass            330772      0.20%      0.20% # Type of FU issued
system.cpu.iq.FU_type_0::IntAlu             131974154     80.35%     80.55% # Type of FU issued
system.cpu.iq.FU_type_0::IntMult               395344      0.24%     80.79% # Type of FU issued
system.cpu.iq.FU_type_0::IntDiv                    30      0.00%     80.79% # Type of FU issued
system.cpu.iq.FU_type_0::FloatAdd              100036      0.06%     80.85% # Type of FU issued
system.cpu.iq.FU_type_0::FloatCmp                   0      0.00%     80.85% # Type of FU issued
system.cpu.iq.FU_type_0::FloatCvt                   0      0.00%     80.85% # Type of FU issued
system.cpu.iq.FU_type_0::FloatMult                  0      0.00%     80.85% # Type of FU issued
system.cpu.iq.FU_type_0::FloatMultAcc               0      0.00%     80.85% # Type of FU issued
system.cpu.iq.FU_type_0::FloatDiv                   0      0.00%     80.85% # Type of FU issued
system.cpu.iq.FU_type_0::FloatMisc                  0      0.00%     80.85% # Type of FU issued
system.cpu.iq.FU_type_0::FloatSqrt                  0      0.00%     80.85% # Type of FU issued
system.cpu.iq.FU_type_0::SimdAdd                  377      0.00%     80.85% # Type of FU issued
system.cpu.iq.FU_type_0::SimdAddAcc                 0      0.00%     80.85% # Type of FU issued
system.cpu.iq.FU_type_0::SimdAlu                  107      0.00%     80.85% # Type of FU issued
system.cpu.iq.FU_type_0::SimdCmp                    6      0.00%     80.85% # Type of FU issued
system.cpu.iq.FU_type_0::SimdCvt                  155      0.00%     80.85% # Type of FU issued
system.cpu.iq.FU_type_0::SimdMisc                 262      0.00%     80.85% # Type of FU issued
system.cpu.iq.FU_type_0::SimdMult                   0      0.00%     80.85% # Type of FU issued
system.cpu.iq.FU_type_0::SimdMultAcc                0      0.00%     80.85% # Type of FU issued
system.cpu.iq.FU_type_0::SimdShift                186      0.00%     80.85% # Type of FU issued
system.cpu.iq.FU_type_0::SimdShiftAcc               0      0.00%     80.85% # Type of FU issued
system.cpu.iq.FU_type_0::SimdSqrt                   0      0.00%     80.85% # Type of FU issued
system.cpu.iq.FU_type_0::SimdFloatAdd               0      0.00%     80.85% # Type of FU issued
system.cpu.iq.FU_type_0::SimdFloatAlu               0      0.00%     80.85% # Type of FU issued
system.cpu.iq.FU_type_0::SimdFloatCmp               0      0.00%     80.85% # Type of FU issued
system.cpu.iq.FU_type_0::SimdFloatCvt               0      0.00%     80.85% # Type of FU issued
system.cpu.iq.FU_type_0::SimdFloatDiv               0      0.00%     80.85% # Type of FU issued
system.cpu.iq.FU_type_0::SimdFloatMisc              0      0.00%     80.85% # Type of FU issued
system.cpu.iq.FU_type_0::SimdFloatMult              0      0.00%     80.85% # Type of FU issued
system.cpu.iq.FU_type_0::SimdFloatMultAcc            0      0.00%     80.85% # Type of FU issued
system.cpu.iq.FU_type_0::SimdFloatSqrt              0      0.00%     80.85% # Type of FU issued
system.cpu.iq.FU_type_0::SimdAes                    0      0.00%     80.85% # Type of FU issued
system.cpu.iq.FU_type_0::SimdAesMix                 0      0.00%     80.85% # Type of FU issued
system.cpu.iq.FU_type_0::SimdSha1Hash               0      0.00%     80.85% # Type of FU issued
system.cpu.iq.FU_type_0::SimdSha1Hash2              0      0.00%     80.85% # Type of FU issued
system.cpu.iq.FU_type_0::SimdSha256Hash             0      0.00%     80.85% # Type of FU issued
system.cpu.iq.FU_type_0::SimdSha256Hash2            0      0.00%     80.85% # Type of FU issued
system.cpu.iq.FU_type_0::SimdShaSigma2              0      0.00%     80.85% # Type of FU issued
system.cpu.iq.FU_type_0::SimdShaSigma3              0      0.00%     80.85% # Type of FU issued
system.cpu.iq.FU_type_0::MemRead             19027469     11.58%     92.44% # Type of FU issued
system.cpu.iq.FU_type_0::MemWrite            11821255      7.20%     99.63% # Type of FU issued
system.cpu.iq.FU_type_0::FloatMemRead          300248      0.18%     99.82% # Type of FU issued
system.cpu.iq.FU_type_0::FloatMemWrite         300581      0.18%    100.00% # Type of FU issued
system.cpu.iq.FU_type_0::IprAccess                  0      0.00%    100.00% # Type of FU issued
system.cpu.iq.FU_type_0::InstPrefetch               0      0.00%    100.00% # Type of FU issued
system.cpu.iq.FU_type_0::total              164250982                       # Type of FU issued
system.cpu.iq.rate                           1.875363                       # Inst issue rate
system.cpu.iq.fu_busy_cnt                    67353328                       # FU busy when requested
system.cpu.iq.fu_busy_rate                   0.410063                       # FU busy rate (busy events/executed inst)
system.cpu.iq.int_inst_queue_reads          484308013                       # Number of integer instruction queue reads
system.cpu.iq.int_inst_queue_writes         183588047                       # Number of integer instruction queue writes
system.cpu.iq.int_inst_queue_wakeup_accesses    162015525                       # Number of integer instruction queue wakeup accesses
system.cpu.iq.fp_inst_queue_reads             1405779                       # Number of floating instruction queue reads
system.cpu.iq.fp_inst_queue_writes             703080                       # Number of floating instruction queue writes
system.cpu.iq.fp_inst_queue_wakeup_accesses       702324                       # Number of floating instruction queue wakeup accesses
system.cpu.iq.vec_inst_queue_reads                  0                       # Number of vector instruction queue reads
system.cpu.iq.vec_inst_queue_writes                 0                       # Number of vector instruction queue writes
system.cpu.iq.vec_inst_queue_wakeup_accesses            0                       # Number of vector instruction queue wakeup accesses
system.cpu.iq.int_alu_accesses              230570266                       # Number of integer alu accesses
system.cpu.iq.fp_alu_accesses                  703272                       # Number of floating point alu accesses
system.cpu.iq.vec_alu_accesses                      0                       # Number of vector alu accesses
system.cpu.iew.lsq.thread0.forwLoads          2134820                       # Number of loads that had data forwarded from stores
system.cpu.iew.lsq.thread0.invAddrLoads             0                       # Number of loads ignored due to an invalid address
system.cpu.iew.lsq.thread0.squashedLoads      1733332                       # Number of loads squashed
system.cpu.iew.lsq.thread0.ignoredResponses         6872                       # Number of memory responses ignored because the instruction is squashed
system.cpu.iew.lsq.thread0.memOrderViolation          600                       # Number of memory ordering violations
system.cpu.iew.lsq.thread0.squashedStores       944224                       # Number of stores squashed
system.cpu.iew.lsq.thread0.invAddrSwpfs             0                       # Number of software prefetches ignored due to an invalid address
system.cpu.iew.lsq.thread0.blockedLoads             0                       # Number of blocked loads due to partial load-store forwarding
system.cpu.iew.lsq.thread0.rescheduledLoads            3                       # Number of loads that were rescheduled
system.cpu.iew.lsq.thread0.cacheBlocked            85                       # Number of times an access to memory failed due to the cache being blocked
system.cpu.iew.iewIdleCycles                        0                       # Number of cycles IEW is idle
system.cpu.iew.iewSquashCycles                 393156                       # Number of cycles IEW is squashing
system.cpu.iew.iewBlockCycles                 6293538                       # Number of cycles IEW is blocking
system.cpu.iew.iewUnblockCycles                274453                       # Number of cycles IEW is unblocking
system.cpu.iew.iewDispatchedInsts           171193253                       # Number of instructions dispatched to IQ
system.cpu.iew.iewDispSquashedInsts            478841                       # Number of squashed instructions skipped by dispatch
system.cpu.iew.iewDispLoadInsts              20219946                       # Number of dispatched load instructions
system.cpu.iew.iewDispStoreInsts             12541265                       # Number of dispatched store instructions
system.cpu.iew.iewDispNonSpecInsts                275                       # Number of dispatched non-speculative instructions
system.cpu.iew.iewIQFullEvents                 128588                       # Number of times the IQ has become full, causing a stall
system.cpu.iew.iewLSQFullEvents                 54510                       # Number of times the LSQ has become full, causing a stall
system.cpu.iew.memOrderViolationEvents            600                       # Number of memory order violations
system.cpu.iew.predictedTakenIncorrect          47198                       # Number of branches that were predicted taken incorrectly
system.cpu.iew.predictedNotTakenIncorrect       439559                       # Number of branches that were predicted not taken incorrectly
system.cpu.iew.branchMispredicts               486757                       # Number of branch mispredicts detected at execute
system.cpu.iew.iewExecutedInsts             162877320                       # Number of executed instructions
system.cpu.iew.iewExecLoadInsts              19183142                       # Number of load instructions executed
system.cpu.iew.iewExecSquashedInsts           1373662                       # Number of squashed instructions skipped in execute
system.cpu.iew.exec_swp                             0                       # number of swp insts executed
system.cpu.iew.exec_nop                             0                       # number of nop insts executed
system.cpu.iew.exec_refs                     31256004                       # number of memory reference insts executed
system.cpu.iew.exec_branches                 20058409                       # Number of branches executed
system.cpu.iew.exec_stores                   12072862                       # Number of stores executed
system.cpu.iew.exec_rate                     1.859679                       # Inst execution rate
system.cpu.iew.wb_sent                      162733281                       # cumulative count of insts sent to commit
system.cpu.iew.wb_count                     162717849                       # cumulative count of insts written-back
system.cpu.iew.wb_producers                 119735263                       # num instructions producing a value
system.cpu.iew.wb_consumers                 192334805                       # num instructions consuming a value
system.cpu.iew.wb_rate                       1.857858                       # insts written-back per cycle
system.cpu.iew.wb_fanout                     0.622536                       # average fanout of values written-back
system.cpu.commit.commitSquashedInsts        12048566                       # The number of squashed insts skipped by commit
system.cpu.commit.commitNonSpecStalls              86                       # The number of times commit has been forced to stall to communicate backwards
system.cpu.commit.branchMispredicts            392573                       # The number of times a branch was mispredicted
system.cpu.commit.committed_per_cycle::samples     86898968                       # Number of insts commited each cycle
system.cpu.commit.committed_per_cycle::mean     1.819308                       # Number of insts commited each cycle
system.cpu.commit.committed_per_cycle::stdev     1.753740                       # Number of insts commited each cycle
system.cpu.commit.committed_per_cycle::underflows            0      0.00%      0.00% # Number of insts commited each cycle
system.cpu.commit.committed_per_cycle::0     35537894     40.90%     40.90% # Number of insts commited each cycle
system.cpu.commit.committed_per_cycle::1      8970789     10.32%     51.22% # Number of insts commited each cycle
system.cpu.commit.committed_per_cycle::2      5364247      6.17%     57.39% # Number of insts commited each cycle
system.cpu.commit.committed_per_cycle::3      9707462     11.17%     68.56% # Number of insts commited each cycle
system.cpu.commit.committed_per_cycle::4     27318576     31.44%    100.00% # Number of insts commited each cycle
system.cpu.commit.committed_per_cycle::overflows            0      0.00%    100.00% # Number of insts commited each cycle
system.cpu.commit.committed_per_cycle::min_value            0                       # Number of insts commited each cycle
system.cpu.commit.committed_per_cycle::max_value            4                       # Number of insts commited each cycle
system.cpu.commit.committed_per_cycle::total     86898968                       # Number of insts commited each cycle
system.cpu.commit.committedInsts             85121742                       # Number of instructions committed
system.cpu.commit.committedOps              158095973                       # Number of ops (including micro ops) committed
system.cpu.commit.swp_count                         0                       # Number of s/w prefetches committed
system.cpu.commit.refs                       30083655                       # Number of memory references committed
system.cpu.commit.loads                      18486614                       # Number of loads committed
system.cpu.commit.membars                           0                       # Number of memory barriers committed
system.cpu.commit.branches                   19756630                       # Number of branches committed
system.cpu.commit.vec_insts                         0                       # Number of committed Vector instructions.
system.cpu.commit.fp_insts                     702138                       # Number of committed floating point instructions.
system.cpu.commit.int_insts                 157789319                       # Number of committed integer instructions.
system.cpu.commit.function_calls               665498                       # Number of function calls committed.
system.cpu.commit.op_class_0::No_OpClass       100115      0.06%      0.06% # Class of committed instruction
system.cpu.commit.op_class_0::IntAlu        127433462     80.61%     80.67% # Class of committed instruction
system.cpu.commit.op_class_0::IntMult          377627      0.24%     80.91% # Class of committed instruction
system.cpu.commit.op_class_0::IntDiv               28      0.00%     80.91% # Class of committed instruction
system.cpu.commit.op_class_0::FloatAdd         100015      0.06%     80.97% # Class of committed instruction
system.cpu.commit.op_class_0::FloatCmp              0      0.00%     80.97% # Class of committed instruction
system.cpu.commit.op_class_0::FloatCvt              0      0.00%     80.97% # Class of committed instruction
system.cpu.commit.op_class_0::FloatMult             0      0.00%     80.97% # Class of committed instruction
system.cpu.commit.op_class_0::FloatMultAcc            0      0.00%     80.97% # Class of committed instruction
system.cpu.commit.op_class_0::FloatDiv              0      0.00%     80.97% # Class of committed instruction
system.cpu.commit.op_class_0::FloatMisc             0      0.00%     80.97% # Class of committed instruction
system.cpu.commit.op_class_0::FloatSqrt             0      0.00%     80.97% # Class of committed instruction
system.cpu.commit.op_class_0::SimdAdd             374      0.00%     80.97% # Class of committed instruction
system.cpu.commit.op_class_0::SimdAddAcc            0      0.00%     80.97% # Class of committed instruction
system.cpu.commit.op_class_0::SimdAlu             102      0.00%     80.97% # Class of committed instruction
system.cpu.commit.op_class_0::SimdCmp               6      0.00%     80.97% # Class of committed instruction
system.cpu.commit.op_class_0::SimdCvt             144      0.00%     80.97% # Class of committed instruction
system.cpu.commit.op_class_0::SimdMisc            259      0.00%     80.97% # Class of committed instruction
system.cpu.commit.op_class_0::SimdMult              0      0.00%     80.97% # Class of committed instruction
system.cpu.commit.op_class_0::SimdMultAcc            0      0.00%     80.97% # Class of committed instruction
system.cpu.commit.op_class_0::SimdShift           186      0.00%     80.97% # Class of committed instruction
system.cpu.commit.op_class_0::SimdShiftAcc            0      0.00%     80.97% # Class of committed instruction
system.cpu.commit.op_class_0::SimdSqrt              0      0.00%     80.97% # Class of committed instruction
system.cpu.commit.op_class_0::SimdFloatAdd            0      0.00%     80.97% # Class of committed instruction
system.cpu.commit.op_class_0::SimdFloatAlu            0      0.00%     80.97% # Class of committed instruction
system.cpu.commit.op_class_0::SimdFloatCmp            0      0.00%     80.97% # Class of committed instruction
system.cpu.commit.op_class_0::SimdFloatCvt            0      0.00%     80.97% # Class of committed instruction
system.cpu.commit.op_class_0::SimdFloatDiv            0      0.00%     80.97% # Class of committed instruction
system.cpu.commit.op_class_0::SimdFloatMisc            0      0.00%     80.97% # Class of committed instruction
system.cpu.commit.op_class_0::SimdFloatMult            0      0.00%     80.97% # Class of committed instruction
system.cpu.commit.op_class_0::SimdFloatMultAcc            0      0.00%     80.97% # Class of committed instruction
system.cpu.commit.op_class_0::SimdFloatSqrt            0      0.00%     80.97% # Class of committed instruction
system.cpu.commit.op_class_0::SimdAes               0      0.00%     80.97% # Class of committed instruction
system.cpu.commit.op_class_0::SimdAesMix            0      0.00%     80.97% # Class of committed instruction
system.cpu.commit.op_class_0::SimdSha1Hash            0      0.00%     80.97% # Class of committed instruction
system.cpu.commit.op_class_0::SimdSha1Hash2            0      0.00%     80.97% # Class of committed instruction
system.cpu.commit.op_class_0::SimdSha256Hash            0      0.00%     80.97% # Class of committed instruction
system.cpu.commit.op_class_0::SimdSha256Hash2            0      0.00%     80.97% # Class of committed instruction
system.cpu.commit.op_class_0::SimdShaSigma2            0      0.00%     80.97% # Class of committed instruction
system.cpu.commit.op_class_0::SimdShaSigma3            0      0.00%     80.97% # Class of committed instruction
system.cpu.commit.op_class_0::MemRead        18186510     11.50%     92.47% # Class of committed instruction
system.cpu.commit.op_class_0::MemWrite       11296614      7.15%     99.62% # Class of committed instruction
system.cpu.commit.op_class_0::FloatMemRead       300104      0.19%     99.81% # Class of committed instruction
system.cpu.commit.op_class_0::FloatMemWrite       300427      0.19%    100.00% # Class of committed instruction
system.cpu.commit.op_class_0::IprAccess             0      0.00%    100.00% # Class of committed instruction
system.cpu.commit.op_class_0::InstPrefetch            0      0.00%    100.00% # Class of committed instruction
system.cpu.commit.op_class_0::total         158095973                       # Class of committed instruction
system.cpu.commit.bw_lim_events              27318576                       # number cycles where commit BW limit reached
system.cpu.rob.rob_reads                    229724931                       # The number of ROB reads
system.cpu.rob.rob_writes                   340934106                       # The number of ROB writes
system.cpu.timesIdled                             445                       # Number of times that the entire CPU went into an idle state and unscheduled itself
system.cpu.idleCycles                           39564                       # Total number of cycles that the CPU has spent unscheduled due to idling
system.cpu.committedInsts                    85121742                       # Number of Instructions Simulated
system.cpu.committedOps                     158095973                       # Number of Ops (including micro ops) Simulated
system.cpu.cpi                               1.028921                       # CPI: Cycles Per Instruction
system.cpu.cpi_total                         1.028921                       # CPI: Total CPI of All Threads
system.cpu.ipc                               0.971892                       # IPC: Instructions Per Cycle
system.cpu.ipc_total                         0.971892                       # IPC: Total IPC of All Threads
system.cpu.int_regfile_reads                239298568                       # number of integer regfile reads
system.cpu.int_regfile_writes               130126077                       # number of integer regfile writes
system.cpu.fp_regfile_reads                    304203                       # number of floating regfile reads
system.cpu.fp_regfile_writes                   401727                       # number of floating regfile writes
system.cpu.cc_regfile_reads                 102054455                       # number of cc regfile reads
system.cpu.cc_regfile_writes                 51689571                       # number of cc regfile writes
system.cpu.misc_regfile_reads                72532791                       # number of misc regfile reads
system.cpu.dcache.tags.pwrStateResidencyTicks::UNDEFINED  43791776500                       # Cumulative time (in ticks) in various power states
system.cpu.dcache.tags.tagsinuse           511.506756                       # Cycle average of tags in use
system.cpu.dcache.tags.total_refs            28623510                       # Total number of references to valid blocks.
system.cpu.dcache.tags.sampled_refs            214263                       # Sample count of references to valid blocks.
system.cpu.dcache.tags.avg_refs            133.590541                       # Average number of references to valid blocks.
system.cpu.dcache.tags.warmup_cycle            169500                       # Cycle when the warmup percentage was hit.
system.cpu.dcache.tags.occ_blocks::.cpu.data   511.506756                       # Average occupied blocks per requestor
system.cpu.dcache.tags.occ_percent::.cpu.data     0.999037                       # Average percentage of cache occupancy
system.cpu.dcache.tags.occ_percent::total     0.999037                       # Average percentage of cache occupancy
system.cpu.dcache.tags.occ_task_id_blocks::1024          512                       # Occupied blocks per task id
system.cpu.dcache.tags.age_task_id_blocks_1024::0          128                       # Occupied blocks per task id
system.cpu.dcache.tags.age_task_id_blocks_1024::1          371                       # Occupied blocks per task id
system.cpu.dcache.tags.age_task_id_blocks_1024::3           10                       # Occupied blocks per task id
system.cpu.dcache.tags.age_task_id_blocks_1024::4            3                       # Occupied blocks per task id
system.cpu.dcache.tags.occ_task_id_percent::1024            1                       # Percentage of cache occupancy per task id
system.cpu.dcache.tags.tag_accesses         229260111                       # Number of tag accesses
system.cpu.dcache.tags.data_accesses        229260111                       # Number of data accesses
system.cpu.dcache.pwrStateResidencyTicks::UNDEFINED  43791776500                       # Cumulative time (in ticks) in various power states
system.cpu.dcache.ReadReq_hits::.cpu.data     16838714                       # number of ReadReq hits
system.cpu.dcache.ReadReq_hits::total        16838714                       # number of ReadReq hits
system.cpu.dcache.WriteReq_hits::.cpu.data     11525392                       # number of WriteReq hits
system.cpu.dcache.WriteReq_hits::total       11525392                       # number of WriteReq hits
system.cpu.dcache.demand_hits::.cpu.data     28364106                       # number of demand (read+write) hits
system.cpu.dcache.demand_hits::total         28364106                       # number of demand (read+write) hits
system.cpu.dcache.overall_hits::.cpu.data     28364106                       # number of overall hits
system.cpu.dcache.overall_hits::total        28364106                       # number of overall hits
system.cpu.dcache.ReadReq_misses::.cpu.data       194976                       # number of ReadReq misses
system.cpu.dcache.ReadReq_misses::total        194976                       # number of ReadReq misses
system.cpu.dcache.WriteReq_misses::.cpu.data        71649                       # number of WriteReq misses
system.cpu.dcache.WriteReq_misses::total        71649                       # number of WriteReq misses
system.cpu.dcache.demand_misses::.cpu.data       266625                       # number of demand (read+write) misses
system.cpu.dcache.demand_misses::total         266625                       # number of demand (read+write) misses
system.cpu.dcache.overall_misses::.cpu.data       266625                       # number of overall misses
system.cpu.dcache.overall_misses::total        266625                       # number of overall misses
system.cpu.dcache.ReadReq_miss_latency::.cpu.data   5135112500                       # number of ReadReq miss cycles
system.cpu.dcache.ReadReq_miss_latency::total   5135112500                       # number of ReadReq miss cycles
system.cpu.dcache.WriteReq_miss_latency::.cpu.data   2483626000                       # number of WriteReq miss cycles
system.cpu.dcache.WriteReq_miss_latency::total   2483626000                       # number of WriteReq miss cycles
system.cpu.dcache.demand_miss_latency::.cpu.data   7618738500                       # number of demand (read+write) miss cycles
system.cpu.dcache.demand_miss_latency::total   7618738500                       # number of demand (read+write) miss cycles
system.cpu.dcache.overall_miss_latency::.cpu.data   7618738500                       # number of overall miss cycles
system.cpu.dcache.overall_miss_latency::total   7618738500                       # number of overall miss cycles
system.cpu.dcache.ReadReq_accesses::.cpu.data     17033690                       # number of ReadReq accesses(hits+misses)
system.cpu.dcache.ReadReq_accesses::total     17033690                       # number of ReadReq accesses(hits+misses)
system.cpu.dcache.WriteReq_accesses::.cpu.data     11597041                       # number of WriteReq accesses(hits+misses)
system.cpu.dcache.WriteReq_accesses::total     11597041                       # number of WriteReq accesses(hits+misses)
system.cpu.dcache.demand_accesses::.cpu.data     28630731                       # number of demand (read+write) accesses
system.cpu.dcache.demand_accesses::total     28630731                       # number of demand (read+write) accesses
system.cpu.dcache.overall_accesses::.cpu.data     28630731                       # number of overall (read+write) accesses
system.cpu.dcache.overall_accesses::total     28630731                       # number of overall (read+write) accesses
system.cpu.dcache.ReadReq_miss_rate::.cpu.data     0.011446                       # miss rate for ReadReq accesses
system.cpu.dcache.ReadReq_miss_rate::total     0.011446                       # miss rate for ReadReq accesses
system.cpu.dcache.WriteReq_miss_rate::.cpu.data     0.006178                       # miss rate for WriteReq accesses
system.cpu.dcache.WriteReq_miss_rate::total     0.006178                       # miss rate for WriteReq accesses
system.cpu.dcache.demand_miss_rate::.cpu.data     0.009313                       # miss rate for demand accesses
system.cpu.dcache.demand_miss_rate::total     0.009313                       # miss rate for demand accesses
system.cpu.dcache.overall_miss_rate::.cpu.data     0.009313                       # miss rate for overall accesses
[...]
system.l3cache.tags.occ_percent::.cpu.inst     0.021562                       # Average percentage of cache occupancy
system.l3cache.tags.occ_percent::.cpu.data     0.482821                       # Average percentage of cache occupancy
system.l3cache.tags.occ_percent::total       0.504384                       # Average percentage of cache occupancy
system.l3cache.tags.occ_task_id_blocks::1024        27500                       # Occupied blocks per task id
system.l3cache.tags.age_task_id_blocks_1024::0           64                       # Occupied blocks per task id
system.l3cache.tags.age_task_id_blocks_1024::3         2528                       # Occupied blocks per task id
system.l3cache.tags.age_task_id_blocks_1024::4        24908                       # Occupied blocks per task id
system.l3cache.tags.occ_task_id_percent::1024     0.839233                       # Percentage of cache occupancy per task id
system.l3cache.tags.tag_accesses              4571230                       # Number of tag accesses
system.l3cache.tags.data_accesses             4571230                       # Number of data accesses
system.l3cache.pwrStateResidencyTicks::UNDEFINED  43791776500                       # Cumulative time (in ticks) in various power states
system.l3cache.WritebackDirty_hits::.writebacks       139419                       # number of WritebackDirty hits
system.l3cache.WritebackDirty_hits::total       139419                       # number of WritebackDirty hits
system.l3cache.ReadExReq_hits::.cpu.data            6                       # number of ReadExReq hits
system.l3cache.ReadExReq_hits::total                6                       # number of ReadExReq hits
system.l3cache.ReadSharedReq_hits::.cpu.inst           16                       # number of ReadSharedReq hits
system.l3cache.ReadSharedReq_hits::.cpu.data       117040                       # number of ReadSharedReq hits
system.l3cache.ReadSharedReq_hits::total       117056                       # number of ReadSharedReq hits
system.l3cache.demand_hits::.cpu.inst              16                       # number of demand (read+write) hits
system.l3cache.demand_hits::.cpu.data          117046                       # number of demand (read+write) hits
system.l3cache.demand_hits::total              117062                       # number of demand (read+write) hits
system.l3cache.overall_hits::.cpu.inst             16                       # number of overall hits
system.l3cache.overall_hits::.cpu.data         117046                       # number of overall hits
system.l3cache.overall_hits::total             117062                       # number of overall hits
system.l3cache.ReadExReq_misses::.cpu.data        26390                       # number of ReadExReq misses
system.l3cache.ReadExReq_misses::total          26390                       # number of ReadExReq misses
system.l3cache.ReadSharedReq_misses::.cpu.inst          829                       # number of ReadSharedReq misses
system.l3cache.ReadSharedReq_misses::.cpu.data          283                       # number of ReadSharedReq misses
system.l3cache.ReadSharedReq_misses::total         1112                       # number of ReadSharedReq misses
system.l3cache.demand_misses::.cpu.inst           829                       # number of demand (read+write) misses
system.l3cache.demand_misses::.cpu.data         26673                       # number of demand (read+write) misses
system.l3cache.demand_misses::total             27502                       # number of demand (read+write) misses
system.l3cache.overall_misses::.cpu.inst          829                       # number of overall misses
system.l3cache.overall_misses::.cpu.data        26673                       # number of overall misses
system.l3cache.overall_misses::total            27502                       # number of overall misses
system.l3cache.ReadExReq_miss_latency::.cpu.data   1875835500                       # number of ReadExReq miss cycles
system.l3cache.ReadExReq_miss_latency::total   1875835500                       # number of ReadExReq miss cycles
system.l3cache.ReadSharedReq_miss_latency::.cpu.inst     66665000                       # number of ReadSharedReq miss cycles
system.l3cache.ReadSharedReq_miss_latency::.cpu.data     23917500                       # number of ReadSharedReq miss cycles
system.l3cache.ReadSharedReq_miss_latency::total     90582500                       # number of ReadSharedReq miss cycles
system.l3cache.demand_miss_latency::.cpu.inst     66665000                       # number of demand (read+write) miss cycles
system.l3cache.demand_miss_latency::.cpu.data   1899753000                       # number of demand (read+write) miss cycles
system.l3cache.demand_miss_latency::total   1966418000                       # number of demand (read+write) miss cycles
system.l3cache.overall_miss_latency::.cpu.inst     66665000                       # number of overall miss cycles
system.l3cache.overall_miss_latency::.cpu.data   1899753000                       # number of overall miss cycles
system.l3cache.overall_miss_latency::total   1966418000                       # number of overall miss cycles
system.l3cache.WritebackDirty_accesses::.writebacks       139419                       # number of WritebackDirty accesses(hits+misses)
system.l3cache.WritebackDirty_accesses::total       139419                       # number of WritebackDirty accesses(hits+misses)
system.l3cache.ReadExReq_accesses::.cpu.data        26396                       # number of ReadExReq accesses(hits+misses)
system.l3cache.ReadExReq_accesses::total        26396                       # number of ReadExReq accesses(hits+misses)
system.l3cache.ReadSharedReq_accesses::.cpu.inst          845                       # number of ReadSharedReq accesses(hits+misses)
system.l3cache.ReadSharedReq_accesses::.cpu.data       117323                       # number of ReadSharedReq accesses(hits+misses)
system.l3cache.ReadSharedReq_accesses::total       118168                       # number of ReadSharedReq accesses(hits+misses)
system.l3cache.demand_accesses::.cpu.inst          845                       # number of demand (read+write) accesses
system.l3cache.demand_accesses::.cpu.data       143719                       # number of demand (read+write) accesses
system.l3cache.demand_accesses::total          144564                       # number of demand (read+write) accesses
system.l3cache.overall_accesses::.cpu.inst          845                       # number of overall (read+write) accesses
system.l3cache.overall_accesses::.cpu.data       143719                       # number of overall (read+write) accesses
system.l3cache.overall_accesses::total         144564                       # number of overall (read+write) accesses
system.l3cache.ReadExReq_miss_rate::.cpu.data     0.999773                       # miss rate for ReadExReq accesses
system.l3cache.ReadExReq_miss_rate::total     0.999773                       # miss rate for ReadExReq accesses
system.l3cache.ReadSharedReq_miss_rate::.cpu.inst     0.981065                       # miss rate for ReadSharedReq accesses
system.l3cache.ReadSharedReq_miss_rate::.cpu.data     0.002412                       # miss rate for ReadSharedReq accesses
system.l3cache.ReadSharedReq_miss_rate::total     0.009410                       # miss rate for ReadSharedReq accesses
system.l3cache.demand_miss_rate::.cpu.inst     0.981065                       # miss rate for demand accesses
system.l3cache.demand_miss_rate::.cpu.data     0.185591                       # miss rate for demand accesses
system.l3cache.demand_miss_rate::total       0.190241                       # miss rate for demand accesses
system.l3cache.overall_miss_rate::.cpu.inst     0.981065                       # miss rate for overall accesses
system.l3cache.overall_miss_rate::.cpu.data     0.185591                       # miss rate for overall accesses
system.l3cache.overall_miss_rate::total      0.190241                       # miss rate for overall accesses
system.l3cache.ReadExReq_avg_miss_latency::.cpu.data 71081.299735                       # average ReadExReq miss latency
system.l3cache.ReadExReq_avg_miss_latency::total 71081.299735                       # average ReadExReq miss latency
system.l3cache.ReadSharedReq_avg_miss_latency::.cpu.inst 80416.164053                       # average ReadSharedReq miss latency
system.l3cache.ReadSharedReq_avg_miss_latency::.cpu.data 84514.134276                       # average ReadSharedReq miss latency
system.l3cache.ReadSharedReq_avg_miss_latency::total 81459.082734                       # average ReadSharedReq miss latency
system.l3cache.demand_avg_miss_latency::.cpu.inst 80416.164053                       # average overall miss latency
system.l3cache.demand_avg_miss_latency::.cpu.data 71223.821842                       # average overall miss latency
system.l3cache.demand_avg_miss_latency::total 71500.909025                       # average overall miss latency
system.l3cache.overall_avg_miss_latency::.cpu.inst 80416.164053                       # average overall miss latency
system.l3cache.overall_avg_miss_latency::.cpu.data 71223.821842                       # average overall miss latency
system.l3cache.overall_avg_miss_latency::total 71500.909025                       # average overall miss latency
system.l3cache.blocked_cycles::no_mshrs             0                       # number of cycles access was blocked
system.l3cache.blocked_cycles::no_targets            0                       # number of cycles access was blocked
system.l3cache.blocked::no_mshrs                    0                       # number of cycles access was blocked
system.l3cache.blocked::no_targets                  0                       # number of cycles access was blocked
system.l3cache.avg_blocked_cycles::no_mshrs          nan                       # average number of cycles each access was blocked
system.l3cache.avg_blocked_cycles::no_targets          nan                       # average number of cycles each access was blocked
system.l3cache.ReadExReq_mshr_misses::.cpu.data        26390                       # number of ReadExReq MSHR misses
system.l3cache.ReadExReq_mshr_misses::total        26390                       # number of ReadExReq MSHR misses
system.l3cache.ReadSharedReq_mshr_misses::.cpu.inst          829                       # number of ReadSharedReq MSHR misses
system.l3cache.ReadSharedReq_mshr_misses::.cpu.data          283                       # number of ReadSharedReq MSHR misses
system.l3cache.ReadSharedReq_mshr_misses::total         1112                       # number of ReadSharedReq MSHR misses
system.l3cache.demand_mshr_misses::.cpu.inst          829                       # number of demand (read+write) MSHR misses
system.l3cache.demand_mshr_misses::.cpu.data        26673                       # number of demand (read+write) MSHR misses
system.l3cache.demand_mshr_misses::total        27502                       # number of demand (read+write) MSHR misses
system.l3cache.overall_mshr_misses::.cpu.inst          829                       # number of overall MSHR misses
system.l3cache.overall_mshr_misses::.cpu.data        26673                       # number of overall MSHR misses
system.l3cache.overall_mshr_misses::total        27502                       # number of overall MSHR misses
system.l3cache.ReadExReq_mshr_miss_latency::.cpu.data   1823055500                       # number of ReadExReq MSHR miss cycles
system.l3cache.ReadExReq_mshr_miss_latency::total   1823055500                       # number of ReadExReq MSHR miss cycles
system.l3cache.ReadSharedReq_mshr_miss_latency::.cpu.inst     65007000                       # number of ReadSharedReq MSHR miss cycles
system.l3cache.ReadSharedReq_mshr_miss_latency::.cpu.data     23351500                       # number of ReadSharedReq MSHR miss cycles
system.l3cache.ReadSharedReq_mshr_miss_latency::total     88358500                       # number of ReadSharedReq MSHR miss cycles
system.l3cache.demand_mshr_miss_latency::.cpu.inst     65007000                       # number of demand (read+write) MSHR miss cycles
system.l3cache.demand_mshr_miss_latency::.cpu.data   1846407000                       # number of demand (read+write) MSHR miss cycles
system.l3cache.demand_mshr_miss_latency::total   1911414000                       # number of demand (read+write) MSHR miss cycles
system.l3cache.overall_mshr_miss_latency::.cpu.inst     65007000                       # number of overall MSHR miss cycles
system.l3cache.overall_mshr_miss_latency::.cpu.data   1846407000                       # number of overall MSHR miss cycles
system.l3cache.overall_mshr_miss_latency::total   1911414000                       # number of overall MSHR miss cycles
system.l3cache.ReadExReq_mshr_miss_rate::.cpu.data     0.999773                       # mshr miss rate for ReadExReq accesses
system.l3cache.ReadExReq_mshr_miss_rate::total     0.999773                       # mshr miss rate for ReadExReq accesses
system.l3cache.ReadSharedReq_mshr_miss_rate::.cpu.inst     0.981065                       # mshr miss rate for ReadSharedReq accesses
system.l3cache.ReadSharedReq_mshr_miss_rate::.cpu.data     0.002412                       # mshr miss rate for ReadSharedReq accesses
system.l3cache.ReadSharedReq_mshr_miss_rate::total     0.009410                       # mshr miss rate for ReadSharedReq accesses
system.l3cache.demand_mshr_miss_rate::.cpu.inst     0.981065                       # mshr miss rate for demand accesses
system.l3cache.demand_mshr_miss_rate::.cpu.data     0.185591                       # mshr miss rate for demand accesses
system.l3cache.demand_mshr_miss_rate::total     0.190241                       # mshr miss rate for demand accesses
system.l3cache.overall_mshr_miss_rate::.cpu.inst     0.981065                       # mshr miss rate for overall accesses
system.l3cache.overall_mshr_miss_rate::.cpu.data     0.185591                       # mshr miss rate for overall accesses
system.l3cache.overall_mshr_miss_rate::total     0.190241                       # mshr miss rate for overall accesses
system.l3cache.ReadExReq_avg_mshr_miss_latency::.cpu.data 69081.299735                       # average ReadExReq mshr miss latency
system.l3cache.ReadExReq_avg_mshr_miss_latency::total 69081.299735                       # average ReadExReq mshr miss latency
system.l3cache.ReadSharedReq_avg_mshr_miss_latency::.cpu.inst 78416.164053                       # average ReadSharedReq mshr miss latency
system.l3cache.ReadSharedReq_avg_mshr_miss_latency::.cpu.data 82514.134276                       # average ReadSharedReq mshr miss latency
system.l3cache.ReadSharedReq_avg_mshr_miss_latency::total 79459.082734                       # average ReadSharedReq mshr miss latency
system.l3cache.demand_avg_mshr_miss_latency::.cpu.inst 78416.164053                       # average overall mshr miss latency
system.l3cache.demand_avg_mshr_miss_latency::.cpu.data 69223.821842                       # average overall mshr miss latency
system.l3cache.demand_avg_mshr_miss_latency::total 69500.909025                       # average overall mshr miss latency
system.l3cache.overall_avg_mshr_miss_latency::.cpu.inst 78416.164053                       # average overall mshr miss latency
system.l3cache.overall_avg_mshr_miss_latency::.cpu.data 69223.821842                       # average overall mshr miss latency
system.l3cache.overall_avg_mshr_miss_latency::total 69500.909025                       # average overall mshr miss latency
system.l3cache.replacements                         2                       # number of replacements
system.membus.snoop_filter.tot_requests         27503                       # Total number of requests made to the snoop filter.
system.membus.snoop_filter.hit_single_requests            1                       # Number of requests hitting in the snoop filter with a single holder of the requested data.
system.membus.snoop_filter.hit_multi_requests            0                       # Number of requests hitting in the snoop filter with multiple (>1) holders of the requested data.
system.membus.snoop_filter.tot_snoops               0                       # Total number of snoops made to the snoop filter.
system.membus.snoop_filter.hit_single_snoops            0                       # Number of snoops hitting in the snoop filter with a single holder of the requested data.
system.membus.snoop_filter.hit_multi_snoops            0                       # Number of snoops hitting in the snoop filter with multiple (>1) holders of the requested data.
system.membus.pwrStateResidencyTicks::UNDEFINED  43791776500                       # Cumulative time (in ticks) in various power states
system.membus.trans_dist::ReadResp               1112                       # Transaction distribution
system.membus.trans_dist::CleanEvict                1                       # Transaction distribution
system.membus.trans_dist::ReadExReq             26390                       # Transaction distribution
system.membus.trans_dist::ReadExResp            26390                       # Transaction distribution
system.membus.trans_dist::ReadSharedReq          1112                       # Transaction distribution
system.membus.pkt_count_system.l3cache.mem_side::system.mem_ctrl.port        55005                       # Packet count per connected master and slave (bytes)
system.membus.pkt_count_system.l3cache.mem_side::total        55005                       # Packet count per connected master and slave (bytes)
system.membus.pkt_count::total                  55005                       # Packet count per connected master and slave (bytes)
system.membus.pkt_size_system.l3cache.mem_side::system.mem_ctrl.port      1760128                       # Cumulative packet size per connected master and slave (bytes)
system.membus.pkt_size_system.l3cache.mem_side::total      1760128                       # Cumulative packet size per connected master and slave (bytes)
system.membus.pkt_size::total                 1760128                       # Cumulative packet size per connected master and slave (bytes)
system.membus.snoops                                0                       # Total snoops (count)
system.membus.snoopTraffic                          0                       # Total snoop traffic (bytes)
system.membus.snoop_fanout::samples             27502                       # Request fanout histogram
system.membus.snoop_fanout::mean                    0                       # Request fanout histogram
system.membus.snoop_fanout::stdev                   0                       # Request fanout histogram
system.membus.snoop_fanout::underflows              0      0.00%      0.00% # Request fanout histogram
system.membus.snoop_fanout::0                   27502    100.00%    100.00% # Request fanout histogram
system.membus.snoop_fanout::1                       0      0.00%    100.00% # Request fanout histogram
system.membus.snoop_fanout::overflows               0      0.00%    100.00% # Request fanout histogram
system.membus.snoop_fanout::min_value               0                       # Request fanout histogram
system.membus.snoop_fanout::max_value               0                       # Request fanout histogram
system.membus.snoop_fanout::total               27502                       # Request fanout histogram
system.membus.reqLayer0.occupancy            13751500                       # Layer occupancy (ticks)
system.membus.reqLayer0.utilization               0.0                       # Layer utilization (%)
system.membus.respLayer0.occupancy           74410750                       # Layer occupancy (ticks)
system.membus.respLayer0.utilization              0.2                       # Layer utilization (%)

---------- End Simulation Statistics   ----------