
---------- Begin Simulation Statistics ----------
sim_seconds                                  0.053100                       # Number of seconds simulated
sim_ticks                                 53100492500                       # Number of ticks simulated
final_tick                                53100492500                       # Number of ticks from beginning of simulation (restored from checkpoints and never reset)
sim_freq                                 1000000000000                       # Frequency of simulated ticks
host_inst_rate                                 304252                       # Simulator instruction rate (inst/s)
host_op_rate                                   565085                       # Simulator op (including micro ops) rate (op/s)
host_tick_rate                              189797988                       # Simulator tick rate (ticks/s)
host_mem_usage                                 661144                       # Number of bytes of host memory used
host_seconds                                   279.77                       # Real time elapsed on the host
sim_insts                                    85121742                       # Number of instructions simulated
sim_ops                                     158095973                       # Number of ops (including micro ops) simulated
system.clk_domain.voltage_domain.voltage            1                       # Voltage in Volts
system.clk_domain.clock                           500                       # Clock period in ticks
system.mem_ctrl.pwrStateResidencyTicks::UNDEFINED  53100492500                       # Cumulative time (in ticks) in various power states
system.mem_ctrl.bytes_read::.cpu.inst           50048                       # Number of bytes read from this memory
system.mem_ctrl.bytes_read::.cpu.data         1706816                       # Number of bytes read from this memory
system.mem_ctrl.bytes_read::total             1756864                       # Number of bytes read from this memory
system.mem_ctrl.bytes_inst_read::.cpu.inst        50048                       # Number of instructions bytes read from this memory
system.mem_ctrl.bytes_inst_read::total          50048                       # Number of instructions bytes read from this memory
system.mem_ctrl.num_reads::.cpu.inst              782                       # Number of read requests responded to by this memory
system.mem_ctrl.num_reads::.cpu.data            26669                       # Number of read requests responded to by this memory
system.mem_ctrl.num_reads::total                27451                       # Number of read requests responded to by this memory
system.mem_ctrl.bw_read::.cpu.inst             942515                       # Total read bandwidth from this memory (bytes/s)
system.mem_ctrl.bw_read::.cpu.data           32143129                       # Total read bandwidth from this memory (bytes/s)
system.mem_ctrl.bw_read::total               33085644                       # Total read bandwidth from this memory (bytes/s)
system.mem_ctrl.bw_inst_read::.cpu.inst        942515                       # Instruction read bandwidth from this memory (bytes/s)
system.mem_ctrl.bw_inst_read::total            942515                       # Instruction read bandwidth from this memory (bytes/s)
system.mem_ctrl.bw_total::.cpu.inst            942515                       # Total bandwidth to/from this memory (bytes/s)
system.mem_ctrl.bw_total::.cpu.data          32143129                       # Total bandwidth to/from this memory (bytes/s)
system.mem_ctrl.bw_total::total              33085644                       # Total bandwidth to/from this memory (bytes/s)
system.mem_ctrl.avgPriority_.cpu.inst::samples       782.00                       # Average QoS priority value for accepted requests
system.mem_ctrl.avgPriority_.cpu.data::samples     26669.00                       # Average QoS priority value for accepted requests
system.mem_ctrl.priorityMinLatency       0.000000018750                       # per QoS priority minimum request to response latency (s)
system.mem_ctrl.priorityMaxLatency       0.000001099750                       # per QoS priority maximum request to response latency (s)
system.mem_ctrl.numReadWriteTurnArounds             0                       # Number of turnarounds from READ to WRITE
system.mem_ctrl.numWriteReadTurnArounds             0                       # Number of turnarounds from WRITE to READ
system.mem_ctrl.numStayReadState                60972                       # Number of times bus staying in READ state
system.mem_ctrl.numStayWriteState                   0                       # Number of times bus staying in WRITE state
system.mem_ctrl.readReqs                        27451                       # Number of read requests accepted
system.mem_ctrl.writeReqs                           0                       # Number of write requests accepted
system.mem_ctrl.readBursts                      27451                       # Number of DRAM read bursts, including those serviced by the write queue
system.mem_ctrl.writeBursts                         0                       # Number of DRAM write bursts, including those merged in the write queue
system.mem_ctrl.bytesReadDRAM                 1756864                       # Total number of bytes read from DRAM
system.mem_ctrl.bytesReadWrQ                        0                       # Total number of bytes read from write queue
system.mem_ctrl.bytesWritten                        0                       # Total number of bytes written to DRAM
system.mem_ctrl.bytesReadSys                  1756864                       # Total read bytes from the system interface side
system.mem_ctrl.bytesWrittenSys                     0                       # Total written bytes from the system interface side
system.mem_ctrl.servicedByWrQ                       0                       # Number of DRAM read bursts serviced by the write queue
system.mem_ctrl.mergedWrBursts                      0                       # Number of DRAM write bursts merged with an existing one
system.mem_ctrl.neitherReadNorWriteReqs             0                       # Number of requests that are neither read nor write
system.mem_ctrl.perBankRdBursts::0               1862                       # Per bank write bursts
system.mem_ctrl.perBankRdBursts::1               1675                       # Per bank write bursts
system.mem_ctrl.perBankRdBursts::2               1656                       # Per bank write bursts
system.mem_ctrl.perBankRdBursts::3               1678                       # Per bank write bursts
system.mem_ctrl.perBankRdBursts::4               1691                       # Per bank write bursts
system.mem_ctrl.perBankRdBursts::5               1678                       # Per bank write bursts
system.mem_ctrl.perBankRdBursts::6               1736                       # Per bank write bursts
system.mem_ctrl.perBankRdBursts::7               1760                       # Per bank write bursts
system.mem_ctrl.perBankRdBursts::8               1692                       # Per bank write bursts
system.mem_ctrl.perBankRdBursts::9               1589                       # Per bank write bursts
system.mem_ctrl.perBankRdBursts::10              1676                       # Per bank write bursts
system.mem_ctrl.perBankRdBursts::11              1650                       # Per bank write bursts
system.mem_ctrl.perBankRdBursts::12              1671                       # Per bank write bursts
system.mem_ctrl.perBankRdBursts::13              1816                       # Per bank write bursts
system.mem_ctrl.perBankRdBursts::14              1854                       # Per bank write bursts
system.mem_ctrl.perBankRdBursts::15              1767                       # Per bank write bursts
system.mem_ctrl.perBankWrBursts::0                  0                       # Per bank write bursts
system.mem_ctrl.perBankWrBursts::1                  0                       # Per bank write bursts
system.mem_ctrl.perBankWrBursts::2                  0                       # Per bank write bursts
system.mem_ctrl.perBankWrBursts::3                  0                       # Per bank write bursts
system.mem_ctrl.perBankWrBursts::4                  0                       # Per bank write bursts
system.mem_ctrl.perBankWrBursts::5                  0                       # Per bank write bursts
system.mem_ctrl.perBankWrBursts::6                  0                       # Per bank write bursts
system.mem_ctrl.perBankWrBursts::7                  0                       # Per bank write bursts
system.mem_ctrl.perBankWrBursts::8                  0                       # Per bank write bursts
system.mem_ctrl.perBankWrBursts::9                  0                       # Per bank write bursts
system.mem_ctrl.perBankWrBursts::10                 0                       # Per bank write bursts
system.mem_ctrl.perBankWrBursts::11                 0                       # Per bank write bursts
system.mem_ctrl.perBankWrBursts::12                 0                       # Per bank write bursts
system.mem_ctrl.perBankWrBursts::13                 0                       # Per bank write bursts
system.mem_ctrl.perBankWrBursts::14                 0                       # Per bank write bursts
system.mem_ctrl.perBankWrBursts::15                 0                       # Per bank write bursts
system.mem_ctrl.numRdRetry                          0                       # Number of times read queue was full causing retry
system.mem_ctrl.numWrRetry                          0                       # Number of times write queue was full causing retry
system.mem_ctrl.totGap                    53100409000                       # Total gap between requests
system.mem_ctrl.readPktSize::0                      0                       # Read request sizes (log2)
system.mem_ctrl.readPktSize::1                      0                       # Read request sizes (log2)
system.mem_ctrl.readPktSize::2                      0                       # Read request sizes (log2)
system.mem_ctrl.readPktSize::3                      0                       # Read request sizes (log2)
system.mem_ctrl.readPktSize::4                      0                       # Read request sizes (log2)
system.mem_ctrl.readPktSize::5                      0                       # Read request sizes (log2)
system.mem_ctrl.readPktSize::6                  27451                       # Read request sizes (log2)
system.mem_ctrl.writePktSize::0                     0                       # Write request sizes (log2)
system.mem_ctrl.writePktSize::1                     0                       # Write request sizes (log2)
system.mem_ctrl.writePktSize::2                     0                       # Write request sizes (log2)
system.mem_ctrl.writePktSize::3                     0                       # Write request sizes (log2)
system.mem_ctrl.writePktSize::4                     0                       # Write request sizes (log2)
system.mem_ctrl.writePktSize::5                     0                       # Write request sizes (log2)
system.mem_ctrl.writePktSize::6                     0                       # Write request sizes (log2)
system.mem_ctrl.rdQLenPdf::0                    27084                       # What read queue length does an incoming req see
system.mem_ctrl.rdQLenPdf::1                      303                       # What read queue length does an incoming req see
system.mem_ctrl.rdQLenPdf::2                       56                       # What read queue length does an incoming req see
system.mem_ctrl.rdQLenPdf::3                        6                       # What read queue length does an incoming req see
system.mem_ctrl.rdQLenPdf::4                        2                       # What read queue length does an incoming req see
system.mem_ctrl.rdQLenPdf::5                        0                       # What read queue length does an incoming req see
system.mem_ctrl.rdQLenPdf::6                        0                       # What read queue length does an incoming req see
system.mem_ctrl.rdQLenPdf::7                        0                       # What read queue length does an incoming req see
system.mem_ctrl.rdQLenPdf::8                        0                       # What read queue length does an incoming req see
system.mem_ctrl.rdQLenPdf::9                        0                       # What read queue length does an incoming req see
system.mem_ctrl.rdQLenPdf::10                       0                       # What read queue length does an incoming req see
system.mem_ctrl.rdQLenPdf::11                       0                       # What read queue length does an incoming req see
system.mem_ctrl.rdQLenPdf::12                       0                       # What read queue length does an incoming req see
system.mem_ctrl.rdQLenPdf::13                       0                       # What read queue length does an incoming req see
system.mem_ctrl.rdQLenPdf::14                       0                       # What read queue length does an incoming req see
system.mem_ctrl.rdQLenPdf::15                       0                       # What read queue length does an incoming req see
system.mem_ctrl.rdQLenPdf::16                       0                       # What read queue length does an incoming req see
system.mem_ctrl.rdQLenPdf::17                       0                       # What read queue length does an incoming req see
system.mem_ctrl.rdQLenPdf::18                       0                       # What read queue length does an incoming req see
system.mem_ctrl.rdQLenPdf::19                       0                       # What read queue length does an incoming req see
system.mem_ctrl.rdQLenPdf::20                       0                       # What read queue length does an incoming req see
system.mem_ctrl.rdQLenPdf::21                       0                       # What read queue length does an incoming req see
system.mem_ctrl.rdQLenPdf::22                       0                       # What read queue length does an incoming req see
system.mem_ctrl.rdQLenPdf::23                       0                       # What read queue length does an incoming req see
system.mem_ctrl.rdQLenPdf::24                       0                       # What read queue length does an incoming req see
system.mem_ctrl.rdQLenPdf::25                       0                       # What read queue length does an incoming req see
system.mem_ctrl.rdQLenPdf::26                       0                       # What read queue length does an incoming req see
system.mem_ctrl.rdQLenPdf::27                       0                       # What read queue length does an incoming req see
system.mem_ctrl.rdQLenPdf::28                       0                       # What read queue length does an incoming req see
system.mem_ctrl.rdQLenPdf::29                       0                       # What read queue length does an incoming req see
system.mem_ctrl.rdQLenPdf::30                       0                       # What read queue length does an incoming req see
system.mem_ctrl.rdQLenPdf::31                       0                       # What read queue length does an incoming req see
system.mem_ctrl.wrQLenPdf::0                        0                       # What write queue length does an incoming req see
system.mem_ctrl.wrQLenPdf::1                        0                       # What write queue length does an incoming req see
system.mem_ctrl.wrQLenPdf::2                        0                       # What write queue length does an incoming req see
system.mem_ctrl.wrQLenPdf::3                        0                       # What write queue length does an incoming req see
system.mem_ctrl.wrQLenPdf::4                        0                       # What write queue length does an incoming req see
system.mem_ctrl.wrQLenPdf::5                        0                       # What write queue length does an incoming req see
system.mem_ctrl.wrQLenPdf::6                        0                       # What write queue length does an incoming req see
system.mem_ctrl.wrQLenPdf::7                        0                       # What write queue length does an incoming req see
system.mem_ctrl.wrQLenPdf::8                        0                       # What write queue length does an incoming req see
system.mem_ctrl.wrQLenPdf::9                        0                       # What write queue length does an incoming req see
system.mem_ctrl.wrQLenPdf::10                       0                       # What write queue length does an incoming req see
system.mem_ctrl.wrQLenPdf::11                       0                       # What write queue length does an incoming req see
system.mem_ctrl.wrQLenPdf::12                       0                       # What write queue length does an incoming req see
system.mem_ctrl.wrQLenPdf::13                       0                       # What write queue length does an incoming req see
system.mem_ctrl.wrQLenPdf::14                       0                       # What write queue length does an incoming req see
system.mem_ctrl.wrQLenPdf::15                       0                       # What write queue length does an incoming req see
system.mem_ctrl.wrQLenPdf::16                       0                       # What write queue length does an incoming req see
system.mem_ctrl.wrQLenPdf::17                       0                       # What write queue length does an incoming req see
system.mem_ctrl.wrQLenPdf::18                       0                       # What write queue length does an incoming req see
system.mem_ctrl.wrQLenPdf::19                       0                       # What write queue length does an incoming req see
system.mem_ctrl.wrQLenPdf::20                       0                       # What write queue length does an incoming req see
system.mem_ctrl.wrQLenPdf::21                       0                       # What write queue length does an incoming req see
system.mem_ctrl.wrQLenPdf::22                       0                       # What write queue length does an incoming req see
system.mem_ctrl.wrQLenPdf::23                       0                       # What write queue length does an incoming req see
system.mem_ctrl.wrQLenPdf::24                       0                       # What write queue length does an incoming req see
system.mem_ctrl.wrQLenPdf::25                       0                       # What write queue length does an incoming req see
system.mem_ctrl.wrQLenPdf::26                       0                       # What write queue length does an incoming req see
system.mem_ctrl.wrQLenPdf::27                       0                       # What write queue length does an incoming req see
system.mem_ctrl.wrQLenPdf::28                       0                       # What write queue length does an incoming req see
system.mem_ctrl.wrQLenPdf::29                       0                       # What write queue length does an incoming req see
system.mem_ctrl.wrQLenPdf::30                       0                       # What write queue length does an incoming req see
system.mem_ctrl.wrQLenPdf::31                       0                       # What write queue length does an incoming req see
system.mem_ctrl.wrQLenPdf::32                       0                       # What write queue length does an incoming req see
system.mem_ctrl.wrQLenPdf::33                       0                       # What write queue length does an incoming req see
system.mem_ctrl.wrQLenPdf::34                       0                       # What write queue length does an incoming req see
system.mem_ctrl.wrQLenPdf::35                       0                       # What write queue length does an incoming req see
system.mem_ctrl.wrQLenPdf::36                       0                       # What write queue length does an incoming req see
system.mem_ctrl.wrQLenPdf::37                       0                       # What write queue length does an incoming req see
system.mem_ctrl.wrQLenPdf::38                       0                       # What write queue length does an incoming req see
system.mem_ctrl.wrQLenPdf::39                       0                       # What write queue length does an incoming req see
system.mem_ctrl.wrQLenPdf::40                       0                       # What write queue length does an incoming req see
system.mem_ctrl.wrQLenPdf::41                       0                       # What write queue length does an incoming req see
system.mem_ctrl.wrQLenPdf::42                       0                       # What write queue length does an incoming req see
system.mem_ctrl.wrQLenPdf::43                       0                       # What write queue length does an incoming req see
system.mem_ctrl.wrQLenPdf::44                       0                       # What write queue length does an incoming req see
system.mem_ctrl.wrQLenPdf::45                       0                       # What write queue length does an incoming req see
system.mem_ctrl.wrQLenPdf::46                       0                       # What write queue length does an incoming req see
system.mem_ctrl.wrQLenPdf::47                       0                       # What write queue length does an incoming req see
system.mem_ctrl.wrQLenPdf::48                       0                       # What write queue length does an incoming req see
system.mem_ctrl.wrQLenPdf::49                       0                       # What write queue length does an incoming req see
system.mem_ctrl.wrQLenPdf::50                       0                       # What write queue length does an incoming req see
system.mem_ctrl.wrQLenPdf::51                       0                       # What write queue length does an incoming req see
system.mem_ctrl.wrQLenPdf::52                       0                       # What write queue length does an incoming req see
system.mem_ctrl.wrQLenPdf::53                       0                       # What write queue length does an incoming req see
system.mem_ctrl.wrQLenPdf::54                       0                       # What write queue length does an incoming req see
system.mem_ctrl.wrQLenPdf::55                       0                       # What write queue length does an incoming req see
system.mem_ctrl.wrQLenPdf::56                       0                       # What write queue length does an incoming req see
system.mem_ctrl.wrQLenPdf::57                       0                       # What write queue length does an incoming req see
system.mem_ctrl.wrQLenPdf::58                       0                       # What write queue length does an incoming req see
system.mem_ctrl.wrQLenPdf::59                       0                       # What write queue length does an incoming req see
system.mem_ctrl.wrQLenPdf::60                       0                       # What write queue length does an incoming req see
system.mem_ctrl.wrQLenPdf::61                       0                       # What write queue length does an incoming req see
system.mem_ctrl.wrQLenPdf::62                       0                       # What write queue length does an incoming req see
system.mem_ctrl.wrQLenPdf::63                       0                       # What write queue length does an incoming req see
system.mem_ctrl.bytesPerActivate::samples         6569                       # Bytes accessed per row activation
system.mem_ctrl.bytesPerActivate::mean     267.135942                       # Bytes accessed per row activation
system.mem_ctrl.bytesPerActivate::gmean    250.695425                       # Bytes accessed per row activation
system.mem_ctrl.bytesPerActivate::stdev    101.359510                       # Bytes accessed per row activation
system.mem_ctrl.bytesPerActivate::0-127           326      4.96%      4.96% # Bytes accessed per row activation
system.mem_ctrl.bytesPerActivate::128-255          300      4.57%      9.53% # Bytes accessed per row activation
system.mem_ctrl.bytesPerActivate::256-383         5808     88.42%     97.94% # Bytes accessed per row activation
system.mem_ctrl.bytesPerActivate::384-511           30      0.46%     98.40% # Bytes accessed per row activation
system.mem_ctrl.bytesPerActivate::512-639           18      0.27%     98.68% # Bytes accessed per row activation
system.mem_ctrl.bytesPerActivate::640-767            9      0.14%     98.81% # Bytes accessed per row activation
system.mem_ctrl.bytesPerActivate::768-895            7      0.11%     98.92% # Bytes accessed per row activation
system.mem_ctrl.bytesPerActivate::896-1023            8      0.12%     99.04% # Bytes accessed per row activation
system.mem_ctrl.bytesPerActivate::1024-1151           63      0.96%    100.00% # Bytes accessed per row activation
system.mem_ctrl.bytesPerActivate::total          6569                       # Bytes accessed per row activation
system.mem_ctrl.masterReadBytes::.cpu.inst        50048                       # Per-master bytes read from memory
system.mem_ctrl.masterReadBytes::.cpu.data      1706816                       # Per-master bytes read from memory
system.mem_ctrl.masterReadRate::.cpu.inst 942514.798709258670                       # Per-master bytes read from memory rate (Bytes/sec)
system.mem_ctrl.masterReadRate::.cpu.data 32143129.369280330837                       # Per-master bytes read from memory rate (Bytes/sec)
system.mem_ctrl.masterReadAccesses::.cpu.inst          782                       # Per-master read serviced memory accesses
system.mem_ctrl.masterReadAccesses::.cpu.data        26669                       # Per-master read serviced memory accesses
system.mem_ctrl.masterReadTotalLat::.cpu.inst     31124500                       # Per-master read total memory access latency
system.mem_ctrl.masterReadTotalLat::.cpu.data    856997000                       # Per-master read total memory access latency
system.mem_ctrl.masterReadAvgLat::.cpu.inst     39801.15                       # Per-master read average memory access latency
system.mem_ctrl.masterReadAvgLat::.cpu.data     32134.58                       # Per-master read average memory access latency
system.mem_ctrl.totQLat                     373415250                       # Total ticks spent queuing
system.mem_ctrl.totMemAccLat                888121500                       # Total ticks spent from burst creation until serviced by the DRAM
system.mem_ctrl.totBusLat                   137255000                       # Total ticks spent in databus transfers
system.mem_ctrl.avgQLat                      13602.97                       # Average queueing delay per DRAM burst
system.mem_ctrl.avgBusLat                     5000.00                       # Average bus latency per DRAM burst
system.mem_ctrl.avgMemAccLat                 32352.97                       # Average memory access latency per DRAM burst
system.mem_ctrl.avgRdBW                         33.09                       # Average DRAM read bandwidth in MiByte/s
system.mem_ctrl.avgWrBW                          0.00                       # Average achieved write bandwidth in MiByte/s
system.mem_ctrl.avgRdBWSys                      33.09                       # Average system read bandwidth in MiByte/s
system.mem_ctrl.avgWrBWSys                       0.00                       # Average system write bandwidth in MiByte/s
system.mem_ctrl.peakBW                       12800.00                       # Theoretical peak bandwidth in MiByte/s
system.mem_ctrl.busUtil                          0.26                       # Data bus utilization in percentage
system.mem_ctrl.busUtilRead                      0.26                       # Data bus utilization in percentage for reads
system.mem_ctrl.busUtilWrite                     0.00                       # Data bus utilization in percentage for writes
system.mem_ctrl.avgRdQLen                        1.00                       # Average read queue length when enqueuing
system.mem_ctrl.avgWrQLen                        0.00                       # Average write queue length when enqueuing
system.mem_ctrl.readRowHits                     20873                       # Number of row buffer hits during reads
system.mem_ctrl.writeRowHits                        0                       # Number of row buffer hits during writes
system.mem_ctrl.readRowHitRate                  76.04                       # Row buffer hit rate for reads
system.mem_ctrl.writeRowHitRate                   nan                       # Row buffer hit rate for writes
system.mem_ctrl.avgGap                     1934370.66                       # Average gap between requests
system.mem_ctrl.pageHitRate                     76.04                       # Row buffer hit rate, read and write combined
system.mem_ctrl_0.actEnergy                  23676240                       # Energy for activate commands per rank (pJ)
system.mem_ctrl_0.preEnergy                  12561450                       # Energy for precharge commands per rank (pJ)
system.mem_ctrl_0.readEnergy                 98075040                       # Energy for read commands per rank (pJ)
system.mem_ctrl_0.writeEnergy                       0                       # Energy for write commands per rank (pJ)
system.mem_ctrl_0.refreshEnergy          1874652000.000000                       # Energy for refresh commands per rank (pJ)
system.mem_ctrl_0.actBackEnergy             518034240                       # Energy for active background per rank (pJ)
system.mem_ctrl_0.preBackEnergy              40827840                       # Energy for precharge background per rank (pJ)
system.mem_ctrl_0.actPowerDownEnergy       9258203910                       # Energy for active power-down per rank (pJ)
system.mem_ctrl_0.prePowerDownEnergy        849121920                       # Energy for precharge power-down per rank (pJ)
system.mem_ctrl_0.selfRefreshEnergy        7051346940                       # Energy for self refresh per rank (pJ)
system.mem_ctrl_0.totalEnergy             19726605750                       # Total energy per rank (pJ)
system.mem_ctrl_0.averagePower             371.495721                       # Core power per rank (mW)
system.mem_ctrl_0.totalIdleTime           51858291250                       # Total Idle time Per DRAM Rank
system.mem_ctrl_0.memoryStateTime::IDLE      22704500                       # Time in different power states
system.mem_ctrl_0.memoryStateTime::REF      793000000                       # Time in different power states
system.mem_ctrl_0.memoryStateTime::SREF   29343563000                       # Time in different power states
system.mem_ctrl_0.memoryStateTime::PRE_PDN   2211483750                       # Time in different power states
system.mem_ctrl_0.memoryStateTime::ACT      426456500                       # Time in different power states
system.mem_ctrl_0.memoryStateTime::ACT_PDN  20303284750                       # Time in different power states
system.mem_ctrl_1.actEnergy                  23290680                       # Energy for activate commands per rank (pJ)
system.mem_ctrl_1.preEnergy                  12367905                       # Energy for precharge commands per rank (pJ)
system.mem_ctrl_1.readEnergy                 97925100                       # Energy for read commands per rank (pJ)
system.mem_ctrl_1.writeEnergy                       0                       # Energy for write commands per rank (pJ)
system.mem_ctrl_1.refreshEnergy          1873422720.000000                       # Energy for refresh commands per rank (pJ)
system.mem_ctrl_1.actBackEnergy             517419780                       # Energy for active background per rank (pJ)
system.mem_ctrl_1.preBackEnergy              43515360                       # Energy for precharge background per rank (pJ)
system.mem_ctrl_1.actPowerDownEnergy       9113605170                       # Energy for active power-down per rank (pJ)
system.mem_ctrl_1.prePowerDownEnergy        965617440                       # Energy for precharge power-down per rank (pJ)
system.mem_ctrl_1.selfRefreshEnergy        7068748260                       # Energy for self refresh per rank (pJ)
system.mem_ctrl_1.totalEnergy             19716076875                       # Total energy per rank (pJ)
system.mem_ctrl_1.averagePower             371.297439                       # Core power per rank (mW)
system.mem_ctrl_1.totalIdleTime           51852232750                       # Total Idle time Per DRAM Rank
system.mem_ctrl_1.memoryStateTime::IDLE      30328500                       # Time in different power states
system.mem_ctrl_1.memoryStateTime::REF      792480000                       # Time in different power states
system.mem_ctrl_1.memoryStateTime::SREF   29351515000                       # Time in different power states
system.mem_ctrl_1.memoryStateTime::PRE_PDN   2515099250                       # Time in different power states
system.mem_ctrl_1.memoryStateTime::ACT      425178500                       # Time in different power states
system.mem_ctrl_1.memoryStateTime::ACT_PDN  19985891250                       # Time in different power states
system.pwrStateResidencyTicks::UNDEFINED  53100492500                       # Cumulative time (in ticks) in various power states
system.cpu.branchPred.lookups                21865336                       # Number of BP lookups
system.cpu.branchPred.condPredicted          21865336                       # Number of conditional branches predicted
system.cpu.branchPred.condIncorrect            457304                       # Number of conditional branches incorrect
system.cpu.branchPred.BTBLookups             18553052                       # Number of BTB lookups
system.cpu.branchPred.BTBHits                       0                       # Number of BTB hits
system.cpu.branchPred.BTBCorrect                    0                       # Number of correct BTB predictions (this stat may not work properly.
system.cpu.branchPred.BTBHitPct              0.000000                       # BTB Hit Percentage
system.cpu.branchPred.usedRAS                  694460                       # Number of times the RAS was used to get a target.
system.cpu.branchPred.RASInCorrect                685                       # Number of incorrect RAS predictions.
system.cpu.branchPred.indirectLookups        18553052                       # Number of indirect predictor lookups.
system.cpu.branchPred.indirectHits            8071585                       # Number of indirect target hits.
system.cpu.branchPred.indirectMisses         10481467                       # Number of indirect misses.
system.cpu.branchPredindirectMispredicted       388098                       # Number of mispredicted indirect branches.
system.cpu.dtb.walker.pwrStateResidencyTicks::UNDEFINED  53100492500                       # Cumulative time (in ticks) in various power states
system.cpu.dtb.rdAccesses                    19022588                       # TLB accesses on read requests
system.cpu.dtb.wrAccesses                    11886640                       # TLB accesses on write requests
system.cpu.dtb.rdMisses                        108708                       # TLB misses on read requests
system.cpu.dtb.wrMisses                           542                       # TLB misses on write requests
system.cpu.apic_clk_domain.clock                 8000                       # Clock period in ticks
system.cpu.interrupts.pwrStateResidencyTicks::UNDEFINED  53100492500                       # Cumulative time (in ticks) in various power states
system.cpu.itb.walker.pwrStateResidencyTicks::UNDEFINED  53100492500                       # Cumulative time (in ticks) in various power states
system.cpu.itb.rdAccesses                           0                       # TLB accesses on read requests
system.cpu.itb.wrAccesses                    13094113                       # TLB accesses on write requests
system.cpu.itb.rdMisses                             0                       # TLB misses on read requests
system.cpu.itb.wrMisses                           415                       # TLB misses on write requests
system.cpu.workload.numSyscalls                    86                       # Number of system calls
system.cpu.pwrStateResidencyTicks::ON     53100492500                       # Cumulative time (in ticks) in various power states
system.cpu.numCycles                        106200986                       # number of cpu cycles simulated
system.cpu.numWorkItemsStarted                      0                       # number of work items this cpu started
system.cpu.numWorkItemsCompleted                    0                       # number of work items this cpu completed
system.cpu.fetch.icacheStallCycles             449863                       # Number of cycles fetch is stalled on an Icache miss
system.cpu.fetch.Insts                       94591355                       # Number of instructions fetch has processed
system.cpu.fetch.Branches                    21865336                       # Number of branches that fetch encountered
system.cpu.fetch.predictedBranches            8766045                       # Number of branches that fetch has predicted taken
system.cpu.fetch.Cycles                     105246528                       # Number of cycles fetch has run and was not squashing or blocked
system.cpu.fetch.SquashCycles                  915710                       # Number of cycles fetch has spent squashing
system.cpu.fetch.MiscStallCycles                  174                       # Number of cycles fetch has spent waiting on interrupts, or bad addresses, or out of MSHRs
system.cpu.fetch.PendingTrapStallCycles          3087                       # Number of stall cycles due to pending traps
system.cpu.fetch.PendingQuiesceStallCycles           18                       # Number of stall cycles due to pending quiesce instructions
system.cpu.fetch.CacheLines                  13093755                       # Number of cache lines fetched
system.cpu.fetch.IcacheSquashes                   478                       # Number of outstanding Icache misses that were squashed
system.cpu.fetch.rateDist::samples          106157525                       # Number of instructions fetched each cycle (Total)
system.cpu.fetch.rateDist::mean              1.653232                       # Number of instructions fetched each cycle (Total)
system.cpu.fetch.rateDist::stdev             0.708203                       # Number of instructions fetched each cycle (Total)
system.cpu.fetch.rateDist::underflows               0      0.00%      0.00% # Number of instructions fetched each cycle (Total)
system.cpu.fetch.rateDist::0                 14598356     13.75%     13.75% # Number of instructions fetched each cycle (Total)
system.cpu.fetch.rateDist::1                  7615322      7.17%     20.93% # Number of instructions fetched each cycle (Total)
system.cpu.fetch.rateDist::2                 83943847     79.07%    100.00% # Number of instructions fetched each cycle (Total)
system.cpu.fetch.rateDist::overflows                0      0.00%    100.00% # Number of instructions fetched each cycle (Total)
system.cpu.fetch.rateDist::min_value                0                       # Number of instructions fetched each cycle (Total)
system.cpu.fetch.rateDist::max_value                2                       # Number of instructions fetched each cycle (Total)
system.cpu.fetch.rateDist::total            106157525                       # Number of instructions fetched each cycle (Total)
system.cpu.fetch.branchRate                  0.205886                       # Number of branch fetches per cycle
system.cpu.fetch.rate                        0.890682                       # Number of inst fetches per cycle
system.cpu.decode.IdleCycles                  3459468                       # Number of cycles decode is idle
system.cpu.decode.BlockedCycles              12776512                       # Number of cycles decode is blocked
system.cpu.decode.RunCycles                  87561465                       # Number of cycles decode is running
system.cpu.decode.UnblockCycles               1902225                       # Number of cycles decode is unblocking
system.cpu.decode.SquashCycles                 457855                       # Number of cycles decode is squashing
system.cpu.decode.DecodedInsts              170836465                       # Number of instructions handled by decode
system.cpu.decode.SquashedInsts               1700955                       # Number of squashed instructions handled by decode
system.cpu.rename.SquashCycles                 457855                       # Number of cycles rename is squashing
system.cpu.rename.IdleCycles                  5803249                       # Number of cycles rename is idle
system.cpu.rename.BlockCycles                 7337116                       # Number of cycles rename is blocking
system.cpu.rename.serializeStallCycles           4889                       # count of cycles rename stalled for serializing inst
system.cpu.rename.RunCycles                  86974371                       # Number of cycles rename is running
system.cpu.rename.UnblockCycles               5580045                       # Number of cycles rename is unblocking
system.cpu.rename.RenamedInsts              169061229                       # Number of instructions processed by rename
system.cpu.rename.SquashedInsts                867216                       # Number of squashed instructions processed by rename
system.cpu.rename.ROBFullEvents                   162                       # Number of times rename has blocked due to ROB full
system.cpu.rename.IQFullEvents                 486278                       # Number of times rename has blocked due to IQ full
system.cpu.rename.LQFullEvents                  56795                       # Number of times rename has blocked due to LQ full
system.cpu.rename.SQFullEvents                4053527                       # Number of times rename has blocked due to SQ full
system.cpu.rename.FullRegisterEvents           108612                       # Number of times there has been no free registers
system.cpu.rename.RenamedOperands           189930490                       # Number of destination operands rename has renamed
system.cpu.rename.RenameLookups             431393733                       # Number of register rename lookups that rename has made
system.cpu.rename.int_rename_lookups        248192445                       # Number of integer rename lookups
system.cpu.rename.fp_rename_lookups            304391                       # Number of floating rename lookups
system.cpu.rename.CommittedMaps             177569425                       # Number of HB maps that are committed
system.cpu.rename.UndoneMaps                 12361065                       # Number of HB maps that are undone due to squashing
system.cpu.rename.serializingInsts                103                       # count of serializing insts renamed
system.cpu.rename.tempSerializingInsts            100                       # count of temporary serializing insts renamed
system.cpu.rename.skidInsts                   2844605                       # count of insts added to the skid buffer
system.cpu.memDep0.insertedLoads             19557156                       # Number of loads inserted to the mem dependence unit.
system.cpu.memDep0.insertedStores            12200878                       # Number of stores inserted to the mem dependence unit.
system.cpu.memDep0.conflictingLoads           1093492                       # Number of conflicting loads.
system.cpu.memDep0.conflictingStores           503340                       # Number of conflicting stores.
system.cpu.iq.iqInstsAdded                  167176101                       # Number of instructions added to the IQ (excludes non-spec)
system.cpu.iq.iqNonSpecInstsAdded               88644                       # Number of non-speculative instructions added to the IQ
system.cpu.iq.iqInstsIssued                 163991995                       # Number of instructions issued
system.cpu.iq.iqSquashedInstsIssued            665235                       # Number of squashed instructions issued
system.cpu.iq.iqSquashedInstsExamined         9168771                       # Number of squashed instructions iterated over during squash; mainly for profiling
system.cpu.iq.iqSquashedOperandsExamined     12889579                       # Number of squashed operands that are examined and possibly removed from graph
system.cpu.iq.iqSquashedNonSpecRemoved          88558                       # Number of squashed non-spec instructions that were removed
system.cpu.iq.issued_per_cycle::samples     106157525                       # Number of insts issued each cycle
system.cpu.iq.issued_per_cycle::mean         1.544799                       # Number of insts issued each cycle
system.cpu.iq.issued_per_cycle::stdev        0.763196                       # Number of insts issued each cycle
system.cpu.iq.issued_per_cycle::underflows            0      0.00%      0.00% # Number of insts issued each cycle
system.cpu.iq.issued_per_cycle::0            17753505     16.72%     16.72% # Number of insts issued each cycle
system.cpu.iq.issued_per_cycle::1            12816045     12.07%     28.80% # Number of insts issued each cycle
system.cpu.iq.issued_per_cycle::2            75587975     71.20%    100.00% # Number of insts issued each cycle
system.cpu.iq.issued_per_cycle::overflows            0      0.00%    100.00% # Number of insts issued each cycle
system.cpu.iq.issued_per_cycle::min_value            0                       # Number of insts issued each cycle
system.cpu.iq.issued_per_cycle::max_value            2                       # Number of insts issued each cycle
system.cpu.iq.issued_per_cycle::total       106157525                       # Number of insts issued each cycle
system.cpu.iq.fu_full::No_OpClass                   0      0.00%      0.00% # attempts to use FU when none available
system.cpu.iq.fu_full::IntAlu                       0      0.00%      0.00% # attempts to use FU when none available
system.cpu.iq.fu_full::IntMult                      0      0.00%      0.00% # attempts to use FU when none available
system.cpu.iq.fu_full::IntDiv                       0      0.00%      0.00% # attempts to use FU when none available
system.cpu.iq.fu_full::FloatAdd                     0      0.00%      0.00% # attempts to use FU when none available
system.cpu.iq.fu_full::FloatCmp                     0      0.00%      0.00% # attempts to use FU when none available
system.cpu.iq.fu_full::FloatCvt                     0      0.00%      0.00% # attempts to use FU when none available
system.cpu.iq.fu_full::FloatMult                    0      0.00%      0.00% # attempts to use FU when none available
system.cpu.iq.fu_full::FloatMultAcc                 0      0.00%      0.00% # attempts to use FU when none available
system.cpu.iq.fu_full::FloatDiv                     0      0.00%      0.00% # attempts to use FU when none available
system.cpu.iq.fu_full::FloatMisc                    0      0.00%      0.00% # attempts to use FU when none available
system.cpu.iq.fu_full::FloatSqrt                    0      0.00%      0.00% # attempts to use FU when none available
system.cpu.iq.fu_full::SimdAdd                    247      0.01%      0.01% # attempts to use FU when none available
system.cpu.iq.fu_full::SimdAddAcc                   0      0.00%      0.01% # attempts to use FU when none available
system.cpu.iq.fu_full::SimdAlu                     68      0.00%      0.01% # attempts to use FU when none available
system.cpu.iq.fu_full::SimdCmp                      0      0.00%      0.01% # attempts to use FU when none available
system.cpu.iq.fu_full::SimdCvt                     43      0.00%      0.01% # attempts to use FU when none available
system.cpu.iq.fu_full::SimdMisc                   152      0.00%      0.01% # attempts to use FU when none available
system.cpu.iq.fu_full::SimdMult                     0      0.00%      0.01% # attempts to use FU when none available
system.cpu.iq.fu_full::SimdMultAcc                  0      0.00%      0.01% # attempts to use FU when none available
system.cpu.iq.fu_full::SimdShift                  120      0.00%      0.02% # attempts to use FU when none available
system.cpu.iq.fu_full::SimdShiftAcc                 0      0.00%      0.02% # attempts to use FU when none available
system.cpu.iq.fu_full::SimdSqrt                     0      0.00%      0.02% # attempts to use FU when none available
system.cpu.iq.fu_full::SimdFloatAdd                 0      0.00%      0.02% # attempts to use FU when none available
system.cpu.iq.fu_full::SimdFloatAlu                 0      0.00%      0.02% # attempts to use FU when none available
system.cpu.iq.fu_full::SimdFloatCmp                 0      0.00%      0.02% # attempts to use FU when none available
system.cpu.iq.fu_full::SimdFloatCvt                 0      0.00%      0.02% # attempts to use FU when none available
system.cpu.iq.fu_full::SimdFloatDiv                 0      0.00%      0.02% # attempts to use FU when none available
system.cpu.iq.fu_full::SimdFloatMisc                0      0.00%      0.02% # attempts to use FU when none available
system.cpu.iq.fu_full::SimdFloatMult                0      0.00%      0.02% # attempts to use FU when none available
system.cpu.iq.fu_full::SimdFloatMultAcc             0      0.00%      0.02% # attempts to use FU when none available
system.cpu.iq.fu_full::SimdFloatSqrt                0      0.00%      0.02% # attempts to use FU when none available
system.cpu.iq.fu_full::SimdAes                      0      0.00%      0.02% # attempts to use FU when none available
system.cpu.iq.fu_full::SimdAesMix                   0      0.00%      0.02% # attempts to use FU when none available
system.cpu.iq.fu_full::SimdSha1Hash                 0      0.00%      0.02% # attempts to use FU when none available
system.cpu.iq.fu_full::SimdSha1Hash2                0      0.00%      0.02% # attempts to use FU when none available
system.cpu.iq.fu_full::SimdSha256Hash               0      0.00%      0.02% # attempts to use FU when none available
system.cpu.iq.fu_full::SimdSha256Hash2              0      0.00%      0.02% # attempts to use FU when none available
system.cpu.iq.fu_full::SimdShaSigma2                0      0.00%      0.02% # attempts to use FU when none available
system.cpu.iq.fu_full::SimdShaSigma3                0      0.00%      0.02% # attempts to use FU when none available
system.cpu.iq.fu_full::MemRead                3020072     75.10%     75.11% # attempts to use FU when none available
system.cpu.iq.fu_full::MemWrite               1000934     24.89%    100.00% # attempts to use FU when none available
system.cpu.iq.fu_full::FloatMemRead                 0      0.00%    100.00% # attempts to use FU when none available
system.cpu.iq.fu_full::FloatMemWrite                0      0.00%    100.00% # attempts to use FU when none available
system.cpu.iq.fu_full::IprAccess                    0      0.00%    100.00% # attempts to use FU when none available
system.cpu.iq.fu_full::InstPrefetch                 0      0.00%    100.00% # attempts to use FU when none available
system.cpu.iq.FU_type_0::No_OpClass            254601      0.16%      0.16% # Type of FU issued
system.cpu.iq.FU_type_0::IntAlu             132171283     80.60%     80.75% # Type of FU issued
system.cpu.iq.FU_type_0::IntMult               395130      0.24%     80.99% # Type of FU issued
system.cpu.iq.FU_type_0::IntDiv                    30      0.00%     80.99% # Type of FU issued
system.cpu.iq.FU_type_0::FloatAdd              100017      0.06%     81.05% # Type of FU issued
system.cpu.iq.FU_type_0::FloatCmp                   0      0.00%     81.05% # Type of FU issued
system.cpu.iq.FU_type_0::FloatCvt                   0      0.00%     81.05% # Type of FU issued
system.cpu.iq.FU_type_0::FloatMult                  0      0.00%     81.05% # Type of FU issued
system.cpu.iq.FU_type_0::FloatMultAcc               0      0.00%     81.05% # Type of FU issued
system.cpu.iq.FU_type_0::FloatDiv                   0      0.00%     81.05% # Type of FU issued
system.cpu.iq.FU_type_0::FloatMisc                  0      0.00%     81.05% # Type of FU issued
system.cpu.iq.FU_type_0::FloatSqrt                  0      0.00%     81.05% # Type of FU issued
system.cpu.iq.FU_type_0::SimdAdd                  375      0.00%     81.05% # Type of FU issued
system.cpu.iq.FU_type_0::SimdAddAcc                 0      0.00%     81.05% # Type of FU issued
system.cpu.iq.FU_type_0::SimdAlu                  106      0.00%     81.05% # Type of FU issued
system.cpu.iq.FU_type_0::SimdCmp                    6      0.00%     81.05% # Type of FU issued
system.cpu.iq.FU_type_0::SimdCvt                  151      0.00%     81.05% # Type of FU issued
system.cpu.iq.FU_type_0::SimdMisc                 262      0.00%     81.05% # Type of FU issued
system.cpu.iq.FU_type_0::SimdMult                   0      0.00%     81.05% # Type of FU issued
system.cpu.iq.FU_type_0::SimdMultAcc                0      0.00%     81.05% # Type of FU issued
system.cpu.iq.FU_type_0::SimdShift                186      0.00%     81.05% # Type of FU issued
system.cpu.iq.FU_type_0::SimdShiftAcc               0      0.00%     81.05% # Type of FU issued
system.cpu.iq.FU_type_0::SimdSqrt                   0      0.00%     81.05% # Type of FU issued
system.cpu.iq.FU_type_0::SimdFloatAdd               0      0.00%     81.05% # Type of FU issued
system.cpu.iq.FU_type_0::SimdFloatAlu               0      0.00%     81.05% # Type of FU issued
system.cpu.iq.FU_type_0::SimdFloatCmp               0      0.00%     81.05% # Type of FU issued
system.cpu.iq.FU_type_0::SimdFloatCvt               0      0.00%     81.05% # Type of FU issued
system.cpu.iq.FU_type_0::SimdFloatDiv               0      0.00%     81.05% # Type of FU issued
system.cpu.iq.FU_type_0::SimdFloatMisc              0      0.00%     81.05% # Type of FU issued
system.cpu.iq.FU_type_0::SimdFloatMult              0      0.00%     81.05% # Type of FU issued
system.cpu.iq.FU_type_0::SimdFloatMultAcc            0      0.00%     81.05% # Type of FU issued
system.cpu.iq.FU_type_0::SimdFloatSqrt              0      0.00%     81.05% # Type of FU issued
system.cpu.iq.FU_type_0::SimdAes                    0      0.00%     81.05% # Type of FU issued
system.cpu.iq.FU_type_0::SimdAesMix                 0      0.00%     81.05% # Type of FU issued
system.cpu.iq.FU_type_0::SimdSha1Hash               0      0.00%     81.05% # Type of FU issued
system.cpu.iq.FU_type_0::SimdSha1Hash2              0      0.00%     81.05% # Type of FU issued
system.cpu.iq.FU_type_0::SimdSha256Hash             0      0.00%     81.05% # Type of FU issued
system.cpu.iq.FU_type_0::SimdSha256Hash2            0      0.00%     81.05% # Type of FU issued
system.cpu.iq.FU_type_0::SimdShaSigma2              0      0.00%     81.05% # Type of FU issued
system.cpu.iq.FU_type_0::SimdShaSigma3              0      0.00%     81.05% # Type of FU issued
system.cpu.iq.FU_type_0::MemRead             18767884     11.44%     92.50% # Type of FU issued
system.cpu.iq.FU_type_0::MemWrite            11701207      7.14%     99.63% # Type of FU issued
system.cpu.iq.FU_type_0::FloatMemRead          300194      0.18%     99.82% # Type of FU issued
system.cpu.iq.FU_type_0::FloatMemWrite         300563      0.18%    100.00% # Type of FU issued
system.cpu.iq.FU_type_0::IprAccess                  0      0.00%    100.00% # Type of FU issued
system.cpu.iq.FU_type_0::InstPrefetch               0      0.00%    100.00% # Type of FU issued
system.cpu.iq.FU_type_0::total              163991995                       # Type of FU issued
system.cpu.iq.rate                           1.544166                       # Inst issue rate
system.cpu.iq.fu_busy_cnt                     4021636                       # FU busy when requested
system.cpu.iq.fu_busy_rate                   0.024523                       # FU busy rate (busy events/executed inst)
system.cpu.iq.int_inst_queue_reads          437422976                       # Number of integer instruction queue reads
system.cpu.iq.int_inst_queue_writes         175731071                       # Number of integer instruction queue writes
system.cpu.iq.int_inst_queue_wakeup_accesses    161259836                       # Number of integer instruction queue wakeup accesses
system.cpu.iq.fp_inst_queue_reads             1405410                       # Number of floating instruction queue reads
system.cpu.iq.fp_inst_queue_writes             702786                       # Number of floating instruction queue writes
system.cpu.iq.fp_inst_queue_wakeup_accesses       702305                       # Number of floating instruction queue wakeup accesses
system.cpu.iq.vec_inst_queue_reads                  0                       # Number of vector instruction queue reads
system.cpu.iq.vec_inst_queue_writes                 0                       # Number of vector instruction queue writes
system.cpu.iq.vec_inst_queue_wakeup_accesses            0                       # Number of vector instruction queue wakeup accesses
system.cpu.iq.int_alu_accesses              167056013                       # Number of integer alu accesses
system.cpu.iq.fp_alu_accesses                  703017                       # Number of floating point alu accesses
system.cpu.iq.vec_alu_accesses                      0                       # Number of vector alu accesses
system.cpu.iew.lsq.thread0.forwLoads          1364994                       # Number of loads that had data forwarded from stores
system.cpu.iew.lsq.thread0.invAddrLoads             0                       # Number of loads ignored due to an invalid address
system.cpu.iew.lsq.thread0.squashedLoads      1070542                       # Number of loads squashed
system.cpu.iew.lsq.thread0.ignoredResponses          508                       # Number of memory responses ignored because the instruction is squashed
system.cpu.iew.lsq.thread0.memOrderViolation          341                       # Number of memory ordering violations
system.cpu.iew.lsq.thread0.squashedStores       603837                       # Number of stores squashed
system.cpu.iew.lsq.thread0.invAddrSwpfs             0                       # Number of software prefetches ignored due to an invalid address
system.cpu.iew.lsq.thread0.blockedLoads             0                       # Number of blocked loads due to partial load-store forwarding
system.cpu.iew.lsq.thread0.rescheduledLoads            2                       # Number of loads that were rescheduled
system.cpu.iew.lsq.thread0.cacheBlocked           125                       # Number of times an access to memory failed due to the cache being blocked
system.cpu.iew.iewIdleCycles                        0                       # Number of cycles IEW is idle
system.cpu.iew.iewSquashCycles                 457855                       # Number of cycles IEW is squashing
system.cpu.iew.iewBlockCycles                 4157662                       # Number of cycles IEW is blocking
system.cpu.iew.iewUnblockCycles                112316                       # Number of cycles IEW is unblocking
system.cpu.iew.iewDispatchedInsts           167264745                       # Number of instructions dispatched to IQ
system.cpu.iew.iewDispSquashedInsts            427728                       # Number of squashed instructions skipped by dispatch
system.cpu.iew.iewDispLoadInsts              19557156                       # Number of dispatched load instructions
system.cpu.iew.iewDispStoreInsts             12200878                       # Number of dispatched store instructions
system.cpu.iew.iewDispNonSpecInsts              29611                       # Number of dispatched non-speculative instructions
system.cpu.iew.iewIQFullEvents                  42430                       # Number of times the IQ has become full, causing a stall
system.cpu.iew.iewLSQFullEvents                  2666                       # Number of times the LSQ has become full, causing a stall
system.cpu.iew.memOrderViolationEvents            341                       # Number of memory order violations
system.cpu.iew.predictedTakenIncorrect          47167                       # Number of branches that were predicted taken incorrectly
system.cpu.iew.predictedNotTakenIncorrect       461705                       # Number of branches that were predicted not taken incorrectly
system.cpu.iew.branchMispredicts               508872                       # Number of branch mispredicts detected at execute
system.cpu.iew.iewExecutedInsts             162391283                       # Number of executed instructions
system.cpu.iew.iewExecLoadInsts              19022577                       # Number of load instructions executed
system.cpu.iew.iewExecSquashedInsts           1600712                       # Number of squashed instructions skipped in execute
system.cpu.iew.exec_swp                             0                       # number of swp insts executed
system.cpu.iew.exec_nop                             0                       # number of nop insts executed
system.cpu.iew.exec_refs                     30909217                       # number of memory reference insts executed
system.cpu.iew.exec_branches                 19856152                       # Number of branches executed
system.cpu.iew.exec_stores                   11886640                       # Number of stores executed
system.cpu.iew.exec_rate                     1.529094                       # Inst execution rate
system.cpu.iew.wb_sent                      162180790                       # cumulative count of insts sent to commit
system.cpu.iew.wb_count                     161962141                       # cumulative count of insts written-back
system.cpu.iew.wb_producers                 117150419                       # num instructions producing a value
system.cpu.iew.wb_consumers                 180327393                       # num instructions consuming a value
system.cpu.iew.wb_rate                       1.525053                       # insts written-back per cycle
system.cpu.iew.wb_fanout                     0.649654                       # average fanout of values written-back
system.cpu.commit.commitSquashedInsts         8327364                       # The number of squashed insts skipped by commit
system.cpu.commit.commitNonSpecStalls              86                       # The number of times commit has been forced to stall to communicate backwards
system.cpu.commit.branchMispredicts            457525                       # The number of times a branch was mispredicted
system.cpu.commit.committed_per_cycle::samples    105442851                       # Number of insts commited each cycle
system.cpu.commit.committed_per_cycle::mean     1.499352                       # Number of insts commited each cycle
system.cpu.commit.committed_per_cycle::stdev     0.810892                       # Number of insts commited each cycle
system.cpu.commit.committed_per_cycle::underflows            0      0.00%      0.00% # Number of insts commited each cycle
system.cpu.commit.committed_per_cycle::0     21486384     20.38%     20.38% # Number of insts commited each cycle
system.cpu.commit.committed_per_cycle::1      9816961      9.31%     29.69% # Number of insts commited each cycle
system.cpu.commit.committed_per_cycle::2     74139506     70.31%    100.00% # Number of insts commited each cycle
system.cpu.commit.committed_per_cycle::overflows            0      0.00%    100.00% # Number of insts commited each cycle
system.cpu.commit.committed_per_cycle::min_value            0                       # Number of insts commited each cycle
system.cpu.commit.committed_per_cycle::max_value            2                       # Number of insts commited each cycle
system.cpu.commit.committed_per_cycle::total    105442851                       # Number of insts commited each cycle
system.cpu.commit.committedInsts             85121742                       # Number of instructions committed
system.cpu.commit.committedOps              158095973                       # Number of ops (including micro ops) committed
system.cpu.commit.swp_count                         0                       # Number of s/w prefetches committed
system.cpu.commit.refs                       30083655                       # Number of memory references committed
system.cpu.commit.loads                      18486614                       # Number of loads committed
system.cpu.commit.membars                           0                       # Number of memory barriers committed
system.cpu.commit.branches                   19756630                       # Number of branches committed
system.cpu.commit.vec_insts                         0                       # Number of committed Vector instructions.
system.cpu.commit.fp_insts                     702138                       # Number of committed floating point instructions.
system.cpu.commit.int_insts                 157789319                       # Number of committed integer instructions.
system.cpu.commit.function_calls               665498                       # Number of function calls committed.
system.cpu.commit.op_class_0::No_OpClass       100115      0.06%      0.06% # Class of committed instruction
system.cpu.commit.op_class_0::IntAlu        127433462     80.61%     80.67% # Class of committed instruction
system.cpu.commit.op_class_0::IntMult          377627      0.24%     80.91% # Class of committed instruction
system.cpu.commit.op_class_0::IntDiv               28      0.00%     80.91% # Class of committed instruction
system.cpu.commit.op_class_0::FloatAdd         100015      0.06%     80.97% # Class of committed instruction
system.cpu.commit.op_class_0::FloatCmp              0      0.00%     80.97% # Class of committed instruction
system.cpu.commit.op_class_0::FloatCvt              0      0.00%     80.97% # Class of committed instruction
system.cpu.commit.op_class_0::FloatMult             0      0.00%     80.97% # Class of committed instruction
system.cpu.commit.op_class_0::FloatMultAcc            0      0.00%     80.97% # Class of committed instruction
system.cpu.commit.op_class_0::FloatDiv              0      0.00%     80.97% # Class of committed instruction
system.cpu.commit.op_class_0::FloatMisc             0      0.00%     80.97% # Class of committed instruction
system.cpu.commit.op_class_0::FloatSqrt             0      0.00%     80.97% # Class of committed instruction
system.cpu.commit.op_class_0::SimdAdd             374      0.00%     80.97% # Class of committed instruction
system.cpu.commit.op_class_0::SimdAddAcc            0      0.00%     80.97% # Class of committed instruction
system.cpu.commit.op_class_0::SimdAlu             102      0.00%     80.97% # Class of committed instruction
system.cpu.commit.op_class_0::SimdCmp               6      0.00%     80.97% # Class of committed instruction
system.cpu.commit.op_class_0::SimdCvt             144      0.00%     80.97% # Class of committed instruction
system.cpu.commit.op_class_0::SimdMisc            259      0.00%     80.97% # Class of committed instruction
system.cpu.commit.op_class_0::SimdMult              0      0.00%     80.97% # Class of committed instruction
system.cpu.commit.op_class_0::SimdMultAcc            0      0.00%     80.97% # Class of committed instruction
system.cpu.commit.op_class_0::SimdShift           186      0.00%     80.97% # Class of committed instruction
system.cpu.commit.op_class_0::SimdShiftAcc            0      0.00%     80.97% # Class of committed instruction
system.cpu.commit.op_class_0::SimdSqrt              0      0.00%     80.97% # Class of committed instruction
system.cpu.commit.op_class_0::SimdFloatAdd            0      0.00%     80.97% # Class of committed instruction
system.cpu.commit.op_class_0::SimdFloatAlu            0      0.00%     80.97% # Class of committed instruction
system.cpu.commit.op_class_0::SimdFloatCmp            0      0.00%     80.97% # Class of committed instruction
system.cpu.commit.op_class_0::SimdFloatCvt            0      0.00%     80.97% # Class of committed instruction
system.cpu.commit.op_class_0::SimdFloatDiv            0      0.00%     80.97% # Class of committed instruction
system.cpu.commit.op_class_0::SimdFloatMisc            0      0.00%     80.97% # Class of committed instruction
system.cpu.commit.op_class_0::SimdFloatMult            0      0.00%     80.97% # Class of committed instruction
system.cpu.commit.op_class_0::SimdFloatMultAcc            0      0.00%     80.97% # Class of committed instruction
system.cpu.commit.op_class_0::SimdFloatSqrt            0      0.00%     80.97% # Class of committed instruction
system.cpu.commit.op_class_0::SimdAes               0      0.00%     80.97% # Class of committed instruction
system.cpu.commit.op_class_0::SimdAesMix            0      0.00%     80.97% # Class of committed instruction
system.cpu.commit.op_class_0::SimdSha1Hash            0      0.00%     80.97% # Class of committed instruction
system.cpu.commit.op_class_0::SimdSha1Hash2            0      0.00%     80.97% # Class of committed instruction
system.cpu.commit.op_class_0::SimdSha256Hash            0      0.00%     80.97% # Class of committed instruction
system.cpu.commit.op_class_0::SimdSha256Hash2            0      0.00%     80.97% # Class of committed instruction
system.cpu.commit.op_class_0::SimdShaSigma2            0      0.00%     80.97% # Class of committed instruction
system.cpu.commit.op_class_0::SimdShaSigma3            0      0.00%     80.97% # Class of committed instruction
system.cpu.commit.op_class_0::MemRead        18186510     11.50%     92.47% # Class of committed instruction
system.cpu.commit.op_class_0::MemWrite       11296614      7.15%     99.62% # Class of committed instruction
system.cpu.commit.op_class_0::FloatMemRead       300104      0.19%     99.81% # Class of committed instruction
system.cpu.commit.op_class_0::FloatMemWrite       300427      0.19%    100.00% # Class of committed instruction
system.cpu.commit.op_class_0::IprAccess             0      0.00%    100.00% # Class of committed instruction
system.cpu.commit.op_class_0::InstPrefetch            0      0.00%    100.00% # Class of committed instruction
system.cpu.commit.op_class_0::total         158095973                       # Class of committed instruction
system.cpu.commit.bw_lim_events              74139506                       # number cycles where commit BW limit reached
system.cpu.rob.rob_reads                    197726682                       # The number of ROB reads
system.cpu.rob.rob_writes                   333561358                       # The number of ROB writes
system.cpu.timesIdled                             468                       # Number of times that the entire CPU went into an idle state and unscheduled itself
system.cpu.idleCycles                           43461                       # Total number of cycles that the CPU has spent unscheduled due to idling
system.cpu.committedInsts                    85121742                       # Number of Instructions Simulated
system.cpu.committedOps                     158095973                       # Number of Ops (including micro ops) Simulated
system.cpu.cpi                               1.247636                       # CPI: Cycles Per Instruction
system.cpu.cpi_total                         1.247636                       # CPI: Total CPI of All Threads
system.cpu.ipc                               0.801516                       # IPC: Instructions Per Cycle
system.cpu.ipc_total                         0.801516                       # IPC: Total IPC of All Threads
system.cpu.int_regfile_reads                237723451                       # number of integer regfile reads
system.cpu.int_regfile_writes               130034510                       # number of integer regfile writes
system.cpu.fp_regfile_reads                    304200                       # number of floating regfile reads
system.cpu.fp_regfile_writes                   401707                       # number of floating regfile writes
system.cpu.cc_regfile_reads                 101545824                       # number of cc regfile reads
system.cpu.cc_regfile_writes                 51500114                       # number of cc regfile writes
system.cpu.misc_regfile_reads                72092624                       # number of misc regfile reads
system.cpu.dcache.tags.pwrStateResidencyTicks::UNDEFINED  53100492500                       # Cumulative time (in ticks) in various power states
system.cpu.dcache.tags.tagsinuse           255.894048                       # Cycle average of tags in use
system.cpu.dcache.tags.total_refs            29234679                       # Total number of references to valid blocks.
system.cpu.dcache.tags.sampled_refs            238573                       # Sample count of references to valid blocks.
system.cpu.dcache.tags.avg_refs            122.539764                       # Average number of references to valid blocks.
system.cpu.dcache.tags.warmup_cycle            170000                       # Cycle when the warmup percentage was hit.
system.cpu.dcache.tags.occ_blocks::.cpu.data   255.894048                       # Average occupied blocks per requestor
system.cpu.dcache.tags.occ_percent::.cpu.data     0.999586                       # Average percentage of cache occupancy
system.cpu.dcache.tags.occ_percent::total     0.999586                       # Average percentage of cache occupancy
system.cpu.dcache.tags.occ_task_id_blocks::1024          256                       # Occupied blocks per task id
system.cpu.dcache.tags.age_task_id_blocks_1024::0          116                       # Occupied blocks per task id
system.cpu.dcache.tags.age_task_id_blocks_1024::1          127                       # Occupied blocks per task id
system.cpu.dcache.tags.age_task_id_blocks_1024::3           10                       # Occupied blocks per task id
system.cpu.dcache.tags.age_task_id_blocks_1024::4            3                       # Occupied blocks per task id
system.cpu.dcache.tags.occ_task_id_percent::1024            1                       # Percentage of cache occupancy per task id
system.cpu.dcache.tags.tag_accesses         234127245                       # Number of tag accesses
system.cpu.dcache.tags.data_accesses        234127245                       # Number of data accesses
system.cpu.dcache.pwrStateResidencyTicks::UNDEFINED  53100492500                       # Cumulative time (in ticks) in various power states
system.cpu.dcache.ReadReq_hits::.cpu.data     17425597                       # number of ReadReq hits
system.cpu.dcache.ReadReq_hits::total        17425597                       # number of ReadReq hits
system.cpu.dcache.WriteReq_hits::.cpu.data     11525553                       # number of WriteReq hits
system.cpu.dcache.WriteReq_hits::total       11525553                       # number of WriteReq hits
system.cpu.dcache.demand_hits::.cpu.data     28951150                       # number of demand (read+write) hits
system.cpu.dcache.demand_hits::total         28951150                       # number of demand (read+write) hits
system.cpu.dcache.overall_hits::.cpu.data     28951150                       # number of overall hits
system.cpu.dcache.overall_hits::total        28951150                       # number of overall hits
system.cpu.dcache.ReadReq_misses::.cpu.data       213446                       # number of ReadReq misses
system.cpu.dcache.ReadReq_misses::total        213446                       # number of ReadReq misses
system.cpu.dcache.WriteReq_misses::.cpu.data        71488                       # number of WriteReq misses
system.cpu.dcache.WriteReq_misses::total        71488                       # number of WriteReq misses
system.cpu.dcache.demand_misses::.cpu.data       284934                       # number of demand (read+write) misses
system.cpu.dcache.demand_misses::total         284934                       # number of demand (read+write) misses
system.cpu.dcache.overall_misses::.cpu.data       284934                       # number of overall misses
system.cpu.dcache.overall_misses::total        284934                       # number of overall misses
system.cpu.dcache.ReadReq_miss_latency::.cpu.data   5409665000                       # number of ReadReq miss cycles
system.cpu.dcache.ReadReq_miss_latency::total   5409665000                       # number of ReadReq miss cycles
system.cpu.dcache.WriteReq_miss_latency::.cpu.data   2432817500                       # number of WriteReq miss cycles
system.cpu.dcache.WriteReq_miss_latency::total   2432817500                       # number of WriteReq miss cycles
system.cpu.dcache.demand_miss_latency::.cpu.data   7842482500                       # number of demand (read+write) miss cycles
system.cpu.dcache.demand_miss_latency::total   7842482500                       # number of demand (read+write) miss cycles
system.cpu.dcache.overall_miss_latency::.cpu.data   7842482500                       # number of overall miss cycles
system.cpu.dcache.overall_miss_latency::total   7842482500                       # number of overall miss cycles
system.cpu.dcache.ReadReq_accesses::.cpu.data     17639043                       # number of ReadReq accesses(hits+misses)
system.cpu.dcache.ReadReq_accesses::total     17639043                       # number of ReadReq accesses(hits+misses)
system.cpu.dcache.WriteReq_accesses::.cpu.data     11597041                       # number of WriteReq accesses(hits+misses)
system.cpu.dcache.WriteReq_accesses::total     11597041                       # number of WriteReq accesses(hits+misses)
system.cpu.dcache.demand_accesses::.cpu.data     29236084                       # number of demand (read+write) accesses
system.cpu.dcache.demand_accesses::total     29236084                       # number of demand (read+write) accesses
system.cpu.dcache.overall_accesses::.cpu.data     29236084                       # number of overall (read+write) accesses
system.cpu.dcache.overall_accesses::total     29236084                       # number of overall (read+write) accesses
system.cpu.dcache.ReadReq_miss_rate::.cpu.data     0.012101                       # miss rate for ReadReq accesses
system.cpu.dcache.ReadReq_miss_rate::total     0.012101                       # miss rate for ReadReq accesses
system.cpu.dcache.WriteReq_miss_rate::.cpu.data     0.006164                       # miss rate for WriteReq accesses
system.cpu.dcache.WriteReq_miss_rate::total     0.006164                       # miss rate for WriteReq accesses
system.cpu.dcache.demand_miss_rate::.cpu.data     0.009746                       # miss rate for demand accesses
system.cpu.dcache.demand_miss_rate::total     0.009746                       # miss rate for demand accesses
system.cpu.dcache.overall_miss_rate::.cpu.data     0.009746                       # miss rate for overall accesses
system.cpu.dcache.overall_miss_rate::total     0.009746                       # miss rate for overall accesses
system.cpu.dcache.ReadReq_avg_miss_latency::.cpu.data 25344.419666                       # average ReadReq miss latency
system.cpu.dcache.ReadReq_avg_miss_latency::total 25344.419666                       # average ReadReq miss latency
system.cpu.dcache.WriteReq_avg_miss_latency::.cpu.data 34031.131099                       # average WriteReq miss latency
system.cpu.dcache.WriteReq_avg_miss_latency::total 34031.131099                       # average WriteReq miss latency
system.cpu.dcache.demand_avg_miss_latency::.cpu.data 27523.856402                       # average overall miss latency
[...]
system.l3cache.tags.occ_blocks::.cpu.data 15553.443840                       # Average occupied blocks per requestor
system.l3cache.tags.occ_percent::.cpu.inst     0.020314                       # Average percentage of cache occupancy
system.l3cache.tags.occ_percent::.cpu.data     0.474653                       # Average percentage of cache occupancy
system.l3cache.tags.occ_percent::total       0.494967                       # Average percentage of cache occupancy
system.l3cache.tags.occ_task_id_blocks::1024        27451                       # Occupied blocks per task id
system.l3cache.tags.age_task_id_blocks_1024::0           60                       # Occupied blocks per task id
system.l3cache.tags.age_task_id_blocks_1024::3         1926                       # Occupied blocks per task id
system.l3cache.tags.age_task_id_blocks_1024::4        25465                       # Occupied blocks per task id
system.l3cache.tags.occ_task_id_percent::1024     0.837738                       # Percentage of cache occupancy per task id
system.l3cache.tags.tag_accesses              4571147                       # Number of tag accesses
system.l3cache.tags.data_accesses             4571147                       # Number of data accesses
system.l3cache.pwrStateResidencyTicks::UNDEFINED  53100492500                       # Cumulative time (in ticks) in various power states
system.l3cache.WritebackDirty_hits::.writebacks       139445                       # number of WritebackDirty hits
system.l3cache.WritebackDirty_hits::total       139445                       # number of WritebackDirty hits
system.l3cache.ReadExReq_hits::.cpu.data            6                       # number of ReadExReq hits
system.l3cache.ReadExReq_hits::total                6                       # number of ReadExReq hits
system.l3cache.ReadSharedReq_hits::.cpu.inst           12                       # number of ReadSharedReq hits
system.l3cache.ReadSharedReq_hits::.cpu.data       117067                       # number of ReadSharedReq hits
system.l3cache.ReadSharedReq_hits::total       117079                       # number of ReadSharedReq hits
system.l3cache.demand_hits::.cpu.inst              12                       # number of demand (read+write) hits
system.l3cache.demand_hits::.cpu.data          117073                       # number of demand (read+write) hits
system.l3cache.demand_hits::total              117085                       # number of demand (read+write) hits
system.l3cache.overall_hits::.cpu.inst             12                       # number of overall hits
system.l3cache.overall_hits::.cpu.data         117073                       # number of overall hits
system.l3cache.overall_hits::total             117085                       # number of overall hits
system.l3cache.ReadExReq_misses::.cpu.data        26391                       # number of ReadExReq misses
system.l3cache.ReadExReq_misses::total          26391                       # number of ReadExReq misses
system.l3cache.ReadSharedReq_misses::.cpu.inst          782                       # number of ReadSharedReq misses
system.l3cache.ReadSharedReq_misses::.cpu.data          278                       # number of ReadSharedReq misses
system.l3cache.ReadSharedReq_misses::total         1060                       # number of ReadSharedReq misses
system.l3cache.demand_misses::.cpu.inst           782                       # number of demand (read+write) misses
system.l3cache.demand_misses::.cpu.data         26669                       # number of demand (read+write) misses
system.l3cache.demand_misses::total             27451                       # number of demand (read+write) misses
system.l3cache.overall_misses::.cpu.inst          782                       # number of overall misses
system.l3cache.overall_misses::.cpu.data        26669                       # number of overall misses
system.l3cache.overall_misses::total            27451                       # number of overall misses
system.l3cache.ReadExReq_miss_latency::.cpu.data   1824617500                       # number of ReadExReq miss cycles
system.l3cache.ReadExReq_miss_latency::total   1824617500                       # number of ReadExReq miss cycles
system.l3cache.ReadSharedReq_miss_latency::.cpu.inst     60229500                       # number of ReadSharedReq miss cycles
system.l3cache.ReadSharedReq_miss_latency::.cpu.data     24302000                       # number of ReadSharedReq miss cycles
system.l3cache.ReadSharedReq_miss_latency::total     84531500                       # number of ReadSharedReq miss cycles
system.l3cache.demand_miss_latency::.cpu.inst     60229500                       # number of demand (read+write) miss cycles
system.l3cache.demand_miss_latency::.cpu.data   1848919500                       # number of demand (read+write) miss cycles
system.l3cache.demand_miss_latency::total   1909149000                       # number of demand (read+write) miss cycles
system.l3cache.overall_miss_latency::.cpu.inst     60229500                       # number of overall miss cycles
system.l3cache.overall_miss_latency::.cpu.data   1848919500                       # number of overall miss cycles
system.l3cache.overall_miss_latency::total   1909149000                       # number of overall miss cycles
system.l3cache.WritebackDirty_accesses::.writebacks       139445                       # number of WritebackDirty accesses(hits+misses)
system.l3cache.WritebackDirty_accesses::total       139445                       # number of WritebackDirty accesses(hits+misses)
system.l3cache.ReadExReq_accesses::.cpu.data        26397                       # number of ReadExReq accesses(hits+misses)
system.l3cache.ReadExReq_accesses::total        26397                       # number of ReadExReq accesses(hits+misses)
system.l3cache.ReadSharedReq_accesses::.cpu.inst          794                       # number of ReadSharedReq accesses(hits+misses)
system.l3cache.ReadSharedReq_accesses::.cpu.data       117345                       # number of ReadSharedReq accesses(hits+misses)
system.l3cache.ReadSharedReq_accesses::total       118139                       # number of ReadSharedReq accesses(hits+misses)
system.l3cache.demand_accesses::.cpu.inst          794                       # number of demand (read+write) accesses
system.l3cache.demand_accesses::.cpu.data       143742                       # number of demand (read+write) accesses
system.l3cache.demand_accesses::total          144536                       # number of demand (read+write) accesses
system.l3cache.overall_accesses::.cpu.inst          794                       # number of overall (read+write) accesses
system.l3cache.overall_accesses::.cpu.data       143742                       # number of overall (read+write) accesses
system.l3cache.overall_accesses::total         144536                       # number of overall (read+write) accesses
system.l3cache.ReadExReq_miss_rate::.cpu.data     0.999773                       # miss rate for ReadExReq accesses
system.l3cache.ReadExReq_miss_rate::total     0.999773                       # miss rate for ReadExReq accesses
system.l3cache.ReadSharedReq_miss_rate::.cpu.inst     0.984887                       # miss rate for ReadSharedReq accesses
system.l3cache.ReadSharedReq_miss_rate::.cpu.data     0.002369                       # miss rate for ReadSharedReq accesses
system.l3cache.ReadSharedReq_miss_rate::total     0.008972                       # miss rate for ReadSharedReq accesses
system.l3cache.demand_miss_rate::.cpu.inst     0.984887                       # miss rate for demand accesses
system.l3cache.demand_miss_rate::.cpu.data     0.185534                       # miss rate for demand accesses
system.l3cache.demand_miss_rate::total       0.189925                       # miss rate for demand accesses
system.l3cache.overall_miss_rate::.cpu.inst     0.984887                       # miss rate for overall accesses
system.l3cache.overall_miss_rate::.cpu.data     0.185534                       # miss rate for overall accesses
system.l3cache.overall_miss_rate::total      0.189925                       # miss rate for overall accesses
system.l3cache.ReadExReq_avg_miss_latency::.cpu.data 69137.868970                       # average ReadExReq miss latency
system.l3cache.ReadExReq_avg_miss_latency::total 69137.868970                       # average ReadExReq miss latency
system.l3cache.ReadSharedReq_avg_miss_latency::.cpu.inst 77019.820972                       # average ReadSharedReq miss latency
system.l3cache.ReadSharedReq_avg_miss_latency::.cpu.data 87417.266187                       # average ReadSharedReq miss latency
system.l3cache.ReadSharedReq_avg_miss_latency::total 79746.698113                       # average ReadSharedReq miss latency
system.l3cache.demand_avg_miss_latency::.cpu.inst 77019.820972                       # average overall miss latency
system.l3cache.demand_avg_miss_latency::.cpu.data 69328.415014                       # average overall miss latency
system.l3cache.demand_avg_miss_latency::total 69547.521037                       # average overall miss latency
system.l3cache.overall_avg_miss_latency::.cpu.inst 77019.820972                       # average overall miss latency
system.l3cache.overall_avg_miss_latency::.cpu.data 69328.415014                       # average overall miss latency
system.l3cache.overall_avg_miss_latency::total 69547.521037                       # average overall miss latency
system.l3cache.blocked_cycles::no_mshrs             0                       # number of cycles access was blocked
system.l3cache.blocked_cycles::no_targets            0                       # number of cycles access was blocked
system.l3cache.blocked::no_mshrs                    0                       # number of cycles access was blocked
system.l3cache.blocked::no_targets                  0                       # number of cycles access was blocked
system.l3cache.avg_blocked_cycles::no_mshrs          nan                       # average number of cycles each access was blocked
system.l3cache.avg_blocked_cycles::no_targets          nan                       # average number of cycles each access was blocked
system.l3cache.ReadExReq_mshr_misses::.cpu.data        26391                       # number of ReadExReq MSHR misses
system.l3cache.ReadExReq_mshr_misses::total        26391                       # number of ReadExReq MSHR misses
system.l3cache.ReadSharedReq_mshr_misses::.cpu.inst          782                       # number of ReadSharedReq MSHR misses
system.l3cache.ReadSharedReq_mshr_misses::.cpu.data          278                       # number of ReadSharedReq MSHR misses
system.l3cache.ReadSharedReq_mshr_misses::total         1060                       # number of ReadSharedReq MSHR misses
system.l3cache.demand_mshr_misses::.cpu.inst          782                       # number of demand (read+write) MSHR misses
system.l3cache.demand_mshr_misses::.cpu.data        26669                       # number of demand (read+write) MSHR misses
system.l3cache.demand_mshr_misses::total        27451                       # number of demand (read+write) MSHR misses
system.l3cache.overall_mshr_misses::.cpu.inst          782                       # number of overall MSHR misses
system.l3cache.overall_mshr_misses::.cpu.data        26669                       # number of overall MSHR misses
system.l3cache.overall_mshr_misses::total        27451                       # number of overall MSHR misses
system.l3cache.ReadExReq_mshr_miss_latency::.cpu.data   1771835500                       # number of ReadExReq MSHR miss cycles
system.l3cache.ReadExReq_mshr_miss_latency::total   1771835500                       # number of ReadExReq MSHR miss cycles
system.l3cache.ReadSharedReq_mshr_miss_latency::.cpu.inst     58665500                       # number of ReadSharedReq MSHR miss cycles
system.l3cache.ReadSharedReq_mshr_miss_latency::.cpu.data     23746000                       # number of ReadSharedReq MSHR miss cycles
system.l3cache.ReadSharedReq_mshr_miss_latency::total     82411500                       # number of ReadSharedReq MSHR miss cycles
system.l3cache.demand_mshr_miss_latency::.cpu.inst     58665500                       # number of demand (read+write) MSHR miss cycles
system.l3cache.demand_mshr_miss_latency::.cpu.data   1795581500                       # number of demand (read+write) MSHR miss cycles
system.l3cache.demand_mshr_miss_latency::total   1854247000                       # number of demand (read+write) MSHR miss cycles
system.l3cache.overall_mshr_miss_latency::.cpu.inst     58665500                       # number of overall MSHR miss cycles
system.l3cache.overall_mshr_miss_latency::.cpu.data   1795581500                       # number of overall MSHR miss cycles
system.l3cache.overall_mshr_miss_latency::total   1854247000                       # number of overall MSHR miss cycles
system.l3cache.ReadExReq_mshr_miss_rate::.cpu.data     0.999773                       # mshr miss rate for ReadExReq accesses
system.l3cache.ReadExReq_mshr_miss_rate::total     0.999773                       # mshr miss rate for ReadExReq accesses
system.l3cache.ReadSharedReq_mshr_miss_rate::.cpu.inst     0.984887                       # mshr miss rate for ReadSharedReq accesses
system.l3cache.ReadSharedReq_mshr_miss_rate::.cpu.data     0.002369                       # mshr miss rate for ReadSharedReq accesses
system.l3cache.ReadSharedReq_mshr_miss_rate::total     0.008972                       # mshr miss rate for ReadSharedReq accesses
system.l3cache.demand_mshr_miss_rate::.cpu.inst     0.984887                       # mshr miss rate for demand accesses
system.l3cache.demand_mshr_miss_rate::.cpu.data     0.185534                       # mshr miss rate for demand accesses
system.l3cache.demand_mshr_miss_rate::total     0.189925                       # mshr miss rate for demand accesses
system.l3cache.overall_mshr_miss_rate::.cpu.inst     0.984887                       # mshr miss rate for overall accesses
system.l3cache.overall_mshr_miss_rate::.cpu.data     0.185534                       # mshr miss rate for overall accesses
system.l3cache.overall_mshr_miss_rate::total     0.189925                       # mshr miss rate for overall accesses
system.l3cache.ReadExReq_avg_mshr_miss_latency::.cpu.data 67137.868970                       # average ReadExReq mshr miss latency
system.l3cache.ReadExReq_avg_mshr_miss_latency::total 67137.868970                       # average ReadExReq mshr miss latency
system.l3cache.ReadSharedReq_avg_mshr_miss_latency::.cpu.inst 75019.820972                       # average ReadSharedReq mshr miss latency
system.l3cache.ReadSharedReq_avg_mshr_miss_latency::.cpu.data 85417.266187                       # average ReadSharedReq mshr miss latency
system.l3cache.ReadSharedReq_avg_mshr_miss_latency::total 77746.698113                       # average ReadSharedReq mshr miss latency
system.l3cache.demand_avg_mshr_miss_latency::.cpu.inst 75019.820972                       # average overall mshr miss latency
system.l3cache.demand_avg_mshr_miss_latency::.cpu.data 67328.415014                       # average overall mshr miss latency
system.l3cache.demand_avg_mshr_miss_latency::total 67547.521037                       # average overall mshr miss latency
system.l3cache.overall_avg_mshr_miss_latency::.cpu.inst 75019.820972                       # average overall mshr miss latency
system.l3cache.overall_avg_mshr_miss_latency::.cpu.data 67328.415014                       # average overall mshr miss latency
system.l3cache.overall_avg_mshr_miss_latency::total 67547.521037                       # average overall mshr miss latency
system.l3cache.replacements                         0                       # number of replacements
system.membus.snoop_filter.tot_requests         27451                       # Total number of requests made to the snoop filter.
system.membus.snoop_filter.hit_single_requests            0                       # Number of requests hitting in the snoop filter with a single holder of the requested data.
system.membus.snoop_filter.hit_multi_requests            0                       # Number of requests hitting in the snoop filter with multiple (>1) holders of the requested data.
system.membus.snoop_filter.tot_snoops               0                       # Total number of snoops made to the snoop filter.
system.membus.snoop_filter.hit_single_snoops            0                       # Number of snoops hitting in the snoop filter with a single holder of the requested data.
system.membus.snoop_filter.hit_multi_snoops            0                       # Number of snoops hitting in the snoop filter with multiple (>1) holders of the requested data.
system.membus.pwrStateResidencyTicks::UNDEFINED  53100492500                       # Cumulative time (in ticks) in various power states
system.membus.trans_dist::ReadResp               1060                       # Transaction distribution
system.membus.trans_dist::ReadExReq             26391                       # Transaction distribution
system.membus.trans_dist::ReadExResp            26391                       # Transaction distribution
system.membus.trans_dist::ReadSharedReq          1060                       # Transaction distribution
system.membus.pkt_count_system.l3cache.mem_side::system.mem_ctrl.port        54902                       # Packet count per connected master and slave (bytes)
system.membus.pkt_count_system.l3cache.mem_side::total        54902                       # Packet count per connected master and slave (bytes)
system.membus.pkt_count::total                  54902                       # Packet count per connected master and slave (bytes)
system.membus.pkt_size_system.l3cache.mem_side::system.mem_ctrl.port      1756864                       # Cumulative packet size per connected master and slave (bytes)
system.membus.pkt_size_system.l3cache.mem_side::total      1756864                       # Cumulative packet size per connected master and slave (bytes)
system.membus.pkt_size::total                 1756864                       # Cumulative packet size per connected master and slave (bytes)
system.membus.snoops                                0                       # Total snoops (count)
system.membus.snoopTraffic                          0                       # Total snoop traffic (bytes)
system.membus.snoop_fanout::samples             27451                       # Request fanout histogram
system.membus.snoop_fanout::mean                    0                       # Request fanout histogram
system.membus.snoop_fanout::stdev                   0                       # Request fanout histogram
system.membus.snoop_fanout::underflows              0      0.00%      0.00% # Request fanout histogram
system.membus.snoop_fanout::0                   27451    100.00%    100.00% # Request fanout histogram
system.membus.snoop_fanout::1                       0      0.00%    100.00% # Request fanout histogram
system.membus.snoop_fanout::overflows               0      0.00%    100.00% # Request fanout histogram
system.membus.snoop_fanout::min_value               0                       # Request fanout histogram
system.membus.snoop_fanout::max_value               0                       # Request fanout histogram
system.membus.snoop_fanout::total               27451                       # Request fanout histogram
system.membus.reqLayer0.occupancy            13725500                       # Layer occupancy (ticks)
system.membus.reqLayer0.utilization               0.0                       # Layer utilization (%)
system.membus.respLayer0.occupancy           73968000                       # Layer occupancy (ticks)
system.membus.respLayer0.utilization              0.1                       # Layer utilization (%)

---------- End Simulation Statistics   ----------