
---------- Begin Simulation Statistics ----------
sim_seconds                                  0.000345                       # Number of seconds simulated
sim_ticks                                   344872500                       # Number of ticks simulated
final_tick                                  344872500                       # Number of ticks from beginning of simulation (restored from checkpoints and never reset)
sim_freq                                 1000000000000                       # Frequency of simulated ticks
host_inst_rate                                 230902                       # Simulator instruction rate (inst/s)
host_op_rate                                   428941                       # Simulator op (including micro ops) rate (op/s)
host_tick_rate                              168565906                       # Simulator tick rate (ticks/s)
host_mem_usage                                 659216                       # Number of bytes of host memory used
host_seconds                                     2.05                       # Real time elapsed on the host
sim_insts                                      472405                       # Number of instructions simulated
sim_ops                                        877578                       # Number of ops (including micro ops) simulated
system.clk_domain.voltage_domain.voltage            1                       # Voltage in Volts
system.clk_domain.clock                           500                       # Clock period in ticks
system.mem_ctrl.pwrStateResidencyTicks::UNDEFINED    344872500                       # Cumulative time (in ticks) in various power states
system.mem_ctrl.bytes_read::.cpu.inst           49920                       # Number of bytes read from this memory
system.mem_ctrl.bytes_read::.cpu.data           30848                       # Number of bytes read from this memory
system.mem_ctrl.bytes_read::total               80768                       # Number of bytes read from this memory
system.mem_ctrl.bytes_inst_read::.cpu.inst        49920                       # Number of instructions bytes read from this memory
system.mem_ctrl.bytes_inst_read::total          49920                       # Number of instructions bytes read from this memory
system.mem_ctrl.num_reads::.cpu.inst              780                       # Number of read requests responded to by this memory
system.mem_ctrl.num_reads::.cpu.data              482                       # Number of read requests responded to by this memory
system.mem_ctrl.num_reads::total                 1262                       # Number of read requests responded to by this memory
system.mem_ctrl.bw_read::.cpu.inst          144749146                       # Total read bandwidth from this memory (bytes/s)
system.mem_ctrl.bw_read::.cpu.data           89447549                       # Total read bandwidth from this memory (bytes/s)
system.mem_ctrl.bw_read::total              234196696                       # Total read bandwidth from this memory (bytes/s)
system.mem_ctrl.bw_inst_read::.cpu.inst     144749146                       # Instruction read bandwidth from this memory (bytes/s)
system.mem_ctrl.bw_inst_read::total         144749146                       # Instruction read bandwidth from this memory (bytes/s)
system.mem_ctrl.bw_total::.cpu.inst         144749146                       # Total bandwidth to/from this memory (bytes/s)
system.mem_ctrl.bw_total::.cpu.data          89447549                       # Total bandwidth to/from this memory (bytes/s)
system.mem_ctrl.bw_total::total             234196696                       # Total bandwidth to/from this memory (bytes/s)
system.mem_ctrl.avgPriority_.cpu.inst::samples       780.00                       # Average QoS priority value for accepted requests
system.mem_ctrl.avgPriority_.cpu.data::samples       482.00                       # Average QoS priority value for accepted requests
system.mem_ctrl.priorityMinLatency       0.000000018750                       # per QoS priority minimum request to response latency (s)
system.mem_ctrl.priorityMaxLatency       0.000001105750                       # per QoS priority maximum request to response latency (s)
system.mem_ctrl.numReadWriteTurnArounds             0                       # Number of turnarounds from READ to WRITE
system.mem_ctrl.numWriteReadTurnArounds             0                       # Number of turnarounds from WRITE to READ
system.mem_ctrl.numStayReadState                 2560                       # Number of times bus staying in READ state
system.mem_ctrl.numStayWriteState                   0                       # Number of times bus staying in WRITE state
system.mem_ctrl.readReqs                         1262                       # Number of read requests accepted
system.mem_ctrl.writeReqs                           0                       # Number of write requests accepted
system.mem_ctrl.readBursts                       1262                       # Number of DRAM read bursts, including those serviced by the write queue
system.mem_ctrl.writeBursts                         0                       # Number of DRAM write bursts, including those merged in the write queue
system.mem_ctrl.bytesReadDRAM                   80768                       # Total number of bytes read from DRAM
system.mem_ctrl.bytesReadWrQ                        0                       # Total number of bytes read from write queue
system.mem_ctrl.bytesWritten                        0                       # Total number of bytes written to DRAM
system.mem_ctrl.bytesReadSys                    80768                       # Total read bytes from the system interface side
system.mem_ctrl.bytesWrittenSys                     0                       # Total written bytes from the system interface side
system.mem_ctrl.servicedByWrQ                       0                       # Number of DRAM read bursts serviced by the write queue
system.mem_ctrl.mergedWrBursts                      0                       # Number of DRAM write bursts merged with an existing one
system.mem_ctrl.neitherReadNorWriteReqs             0                       # Number of requests that are neither read nor write
system.mem_ctrl.perBankRdBursts::0                192                       # Per bank write bursts
system.mem_ctrl.perBankRdBursts::1                 33                       # Per bank write bursts
system.mem_ctrl.perBankRdBursts::2                 70                       # Per bank write bursts
system.mem_ctrl.perBankRdBursts::3                 91                       # Per bank write bursts
system.mem_ctrl.perBankRdBursts::4                101                       # Per bank write bursts
system.mem_ctrl.perBankRdBursts::5                 12                       # Per bank write bursts
system.mem_ctrl.perBankRdBursts::6                 72                       # Per bank write bursts
system.mem_ctrl.perBankRdBursts::7                 94                       # Per bank write bursts
system.mem_ctrl.perBankRdBursts::8                 29                       # Per bank write bursts
system.mem_ctrl.perBankRdBursts::9                 36                       # Per bank write bursts
system.mem_ctrl.perBankRdBursts::10               138                       # Per bank write bursts
system.mem_ctrl.perBankRdBursts::11               111                       # Per bank write bursts
system.mem_ctrl.perBankRdBursts::12                26                       # Per bank write bursts
system.mem_ctrl.perBankRdBursts::13                34                       # Per bank write bursts
system.mem_ctrl.perBankRdBursts::14               120                       # Per bank write bursts
system.mem_ctrl.perBankRdBursts::15               103                       # Per bank write bursts
system.mem_ctrl.perBankWrBursts::0                  0                       # Per bank write bursts
system.mem_ctrl.perBankWrBursts::1                  0                       # Per bank write bursts
system.mem_ctrl.perBankWrBursts::2                  0                       # Per bank write bursts
system.mem_ctrl.perBankWrBursts::3                  0                       # Per bank write bursts
system.mem_ctrl.perBankWrBursts::4                  0                       # Per bank write bursts
system.mem_ctrl.perBankWrBursts::5                  0                       # Per bank write bursts
system.mem_ctrl.perBankWrBursts::6                  0                       # Per bank write bursts
system.mem_ctrl.perBankWrBursts::7                  0                       # Per bank write bursts
system.mem_ctrl.perBankWrBursts::8                  0                       # Per bank write bursts
system.mem_ctrl.perBankWrBursts::9                  0                       # Per bank write bursts
system.mem_ctrl.perBankWrBursts::10                 0                       # Per bank write bursts
system.mem_ctrl.perBankWrBursts::11                 0                       # Per bank write bursts
system.mem_ctrl.perBankWrBursts::12                 0                       # Per bank write bursts
system.mem_ctrl.perBankWrBursts::13                 0                       # Per bank write bursts
system.mem_ctrl.perBankWrBursts::14                 0                       # Per bank write bursts
system.mem_ctrl.perBankWrBursts::15                 0                       # Per bank write bursts
system.mem_ctrl.numRdRetry                          0                       # Number of times read queue was full causing retry
system.mem_ctrl.numWrRetry                          0                       # Number of times write queue was full causing retry
system.mem_ctrl.totGap                      344789000                       # Total gap between requests
system.mem_ctrl.readPktSize::0                      0                       # Read request sizes (log2)
system.mem_ctrl.readPktSize::1                      0                       # Read request sizes (log2)
system.mem_ctrl.readPktSize::2                      0                       # Read request sizes (log2)
system.mem_ctrl.readPktSize::3                      0                       # Read request sizes (log2)
system.mem_ctrl.readPktSize::4                      0                       # Read request sizes (log2)
system.mem_ctrl.readPktSize::5                      0                       # Read request sizes (log2)
system.mem_ctrl.readPktSize::6                   1262                       # Read request sizes (log2)
system.mem_ctrl.writePktSize::0                     0                       # Write request sizes (log2)
system.mem_ctrl.writePktSize::1                     0                       # Write request sizes (log2)
system.mem_ctrl.writePktSize::2                     0                       # Write request sizes (log2)
system.mem_ctrl.writePktSize::3                     0                       # Write request sizes (log2)
system.mem_ctrl.writePktSize::4                     0                       # Write request sizes (log2)
system.mem_ctrl.writePktSize::5                     0                       # Write request sizes (log2)
system.mem_ctrl.writePktSize::6                     0                       # Write request sizes (log2)
system.mem_ctrl.rdQLenPdf::0                      899                       # What read queue length does an incoming req see
system.mem_ctrl.rdQLenPdf::1                      298                       # What read queue length does an incoming req see
system.mem_ctrl.rdQLenPdf::2                       57                       # What read queue length does an incoming req see
system.mem_ctrl.rdQLenPdf::3                        6                       # What read queue length does an incoming req see
system.mem_ctrl.rdQLenPdf::4                        2                       # What read queue length does an incoming req see
system.mem_ctrl.rdQLenPdf::5                        0                       # What read queue length does an incoming req see
system.mem_ctrl.rdQLenPdf::6                        0                       # What read queue length does an incoming req see
system.mem_ctrl.rdQLenPdf::7                        0                       # What read queue length does an incoming req see
system.mem_ctrl.rdQLenPdf::8                        0                       # What read queue length does an incoming req see
system.mem_ctrl.rdQLenPdf::9                        0                       # What read queue length does an incoming req see
system.mem_ctrl.rdQLenPdf::10                       0                       # What read queue length does an incoming req see
system.mem_ctrl.rdQLenPdf::11                       0                       # What read queue length does an incoming req see
system.mem_ctrl.rdQLenPdf::12                       0                       # What read queue length does an incoming req see
system.mem_ctrl.rdQLenPdf::13                       0                       # What read queue length does an incoming req see
system.mem_ctrl.rdQLenPdf::14                       0                       # What read queue length does an incoming req see
system.mem_ctrl.rdQLenPdf::15                       0                       # What read queue length does an incoming req see
system.mem_ctrl.rdQLenPdf::16                       0                       # What read queue length does an incoming req see
system.mem_ctrl.rdQLenPdf::17                       0                       # What read queue length does an incoming req see
system.mem_ctrl.rdQLenPdf::18                       0                       # What read queue length does an incoming req see
system.mem_ctrl.rdQLenPdf::19                       0                       # What read queue length does an incoming req see
system.mem_ctrl.rdQLenPdf::20                       0                       # What read queue length does an incoming req see
system.mem_ctrl.rdQLenPdf::21                       0                       # What read queue length does an incoming req see
system.mem_ctrl.rdQLenPdf::22                       0                       # What read queue length does an incoming req see
system.mem_ctrl.rdQLenPdf::23                       0                       # What read queue length does an incoming req see
system.mem_ctrl.rdQLenPdf::24                       0                       # What read queue length does an incoming req see
system.mem_ctrl.rdQLenPdf::25                       0                       # What read queue length does an incoming req see
system.mem_ctrl.rdQLenPdf::26                       0                       # What read queue length does an incoming req see
system.mem_ctrl.rdQLenPdf::27                       0                       # What read queue length does an incoming req see
system.mem_ctrl.rdQLenPdf::28                       0                       # What read queue length does an incoming req see
system.mem_ctrl.rdQLenPdf::29                       0                       # What read queue length does an incoming req see
system.mem_ctrl.rdQLenPdf::30                       0                       # What read queue length does an incoming req see
system.mem_ctrl.rdQLenPdf::31                       0                       # What read queue length does an incoming req see
system.mem_ctrl.wrQLenPdf::0                        0                       # What write queue length does an incoming req see
system.mem_ctrl.wrQLenPdf::1                        0                       # What write queue length does an incoming req see
system.mem_ctrl.wrQLenPdf::2                        0                       # What write queue length does an incoming req see
system.mem_ctrl.wrQLenPdf::3                        0                       # What write queue length does an incoming req see
system.mem_ctrl.wrQLenPdf::4                        0                       # What write queue length does an incoming req see
system.mem_ctrl.wrQLenPdf::5                        0                       # What write queue length does an incoming req see
system.mem_ctrl.wrQLenPdf::6                        0                       # What write queue length does an incoming req see
system.mem_ctrl.wrQLenPdf::7                        0                       # What write queue length does an incoming req see
system.mem_ctrl.wrQLenPdf::8                        0                       # What write queue length does an incoming req see
system.mem_ctrl.wrQLenPdf::9                        0                       # What write queue length does an incoming req see
system.mem_ctrl.wrQLenPdf::10                       0                       # What write queue length does an incoming req see
system.mem_ctrl.wrQLenPdf::11                       0                       # What write queue length does an incoming req see
system.mem_ctrl.wrQLenPdf::12                       0                       # What write queue length does an incoming req see
system.mem_ctrl.wrQLenPdf::13                       0                       # What write queue length does an incoming req see
system.mem_ctrl.wrQLenPdf::14                       0                       # What write queue length does an incoming req see
system.mem_ctrl.wrQLenPdf::15                       0                       # What write queue length does an incoming req see
system.mem_ctrl.wrQLenPdf::16                       0                       # What write queue length does an incoming req see
system.mem_ctrl.wrQLenPdf::17                       0                       # What write queue length does an incoming req see
system.mem_ctrl.wrQLenPdf::18                       0                       # What write queue length does an incoming req see
system.mem_ctrl.wrQLenPdf::19                       0                       # What write queue length does an incoming req see
system.mem_ctrl.wrQLenPdf::20                       0                       # What write queue length does an incoming req see
system.mem_ctrl.wrQLenPdf::21                       0                       # What write queue length does an incoming req see
system.mem_ctrl.wrQLenPdf::22                       0                       # What write queue length does an incoming req see
system.mem_ctrl.wrQLenPdf::23                       0                       # What write queue length does an incoming req see
system.mem_ctrl.wrQLenPdf::24                       0                       # What write queue length does an incoming req see
system.mem_ctrl.wrQLenPdf::25                       0                       # What write queue length does an incoming req see
system.mem_ctrl.wrQLenPdf::26                       0                       # What write queue length does an incoming req see
system.mem_ctrl.wrQLenPdf::27                       0                       # What write queue length does an incoming req see
system.mem_ctrl.wrQLenPdf::28                       0                       # What write queue length does an incoming req see
system.mem_ctrl.wrQLenPdf::29                       0                       # What write queue length does an incoming req see
system.mem_ctrl.wrQLenPdf::30                       0                       # What write queue length does an incoming req see
system.mem_ctrl.wrQLenPdf::31                       0                       # What write queue length does an incoming req see
system.mem_ctrl.wrQLenPdf::32                       0                       # What write queue length does an incoming req see
system.mem_ctrl.wrQLenPdf::33                       0                       # What write queue length does an incoming req see
system.mem_ctrl.wrQLenPdf::34                       0                       # What write queue length does an incoming req see
system.mem_ctrl.wrQLenPdf::35                       0                       # What write queue length does an incoming req see
system.mem_ctrl.wrQLenPdf::36                       0                       # What write queue length does an incoming req see
system.mem_ctrl.wrQLenPdf::37                       0                       # What write queue length does an incoming req see
system.mem_ctrl.wrQLenPdf::38                       0                       # What write queue length does an incoming req see
system.mem_ctrl.wrQLenPdf::39                       0                       # What write queue length does an incoming req see
system.mem_ctrl.wrQLenPdf::40                       0                       # What write queue length does an incoming req see
system.mem_ctrl.wrQLenPdf::41                       0                       # What write queue length does an incoming req see
system.mem_ctrl.wrQLenPdf::42                       0                       # What write queue length does an incoming req see
system.mem_ctrl.wrQLenPdf::43                       0                       # What write queue length does an incoming req see
system.mem_ctrl.wrQLenPdf::44                       0                       # What write queue length does an incoming req see
system.mem_ctrl.wrQLenPdf::45                       0                       # What write queue length does an incoming req see
system.mem_ctrl.wrQLenPdf::46                       0                       # What write queue length does an incoming req see
system.mem_ctrl.wrQLenPdf::47                       0                       # What write queue length does an incoming req see
system.mem_ctrl.wrQLenPdf::48                       0                       # What write queue length does an incoming req see
system.mem_ctrl.wrQLenPdf::49                       0                       # What write queue length does an incoming req see
system.mem_ctrl.wrQLenPdf::50                       0                       # What write queue length does an incoming req see
system.mem_ctrl.wrQLenPdf::51                       0                       # What write queue length does an incoming req see
system.mem_ctrl.wrQLenPdf::52                       0                       # What write queue length does an incoming req see
system.mem_ctrl.wrQLenPdf::53                       0                       # What write queue length does an incoming req see
system.mem_ctrl.wrQLenPdf::54                       0                       # What write queue length does an incoming req see
system.mem_ctrl.wrQLenPdf::55                       0                       # What write queue length does an incoming req see
system.mem_ctrl.wrQLenPdf::56                       0                       # What write queue length does an incoming req see
system.mem_ctrl.wrQLenPdf::57                       0                       # What write queue length does an incoming req see
system.mem_ctrl.wrQLenPdf::58                       0                       # What write queue length does an incoming req see
system.mem_ctrl.wrQLenPdf::59                       0                       # What write queue length does an incoming req see
system.mem_ctrl.wrQLenPdf::60                       0                       # What write queue length does an incoming req see
system.mem_ctrl.wrQLenPdf::61                       0                       # What write queue length does an incoming req see
system.mem_ctrl.wrQLenPdf::62                       0                       # What write queue length does an incoming req see
system.mem_ctrl.wrQLenPdf::63                       0                       # What write queue length does an incoming req see
system.mem_ctrl.bytesPerActivate::samples          310                       # Bytes accessed per row activation
system.mem_ctrl.bytesPerActivate::mean     254.554839                       # Bytes accessed per row activation
system.mem_ctrl.bytesPerActivate::gmean    161.720131                       # Bytes accessed per row activation
system.mem_ctrl.bytesPerActivate::stdev    268.456601                       # Bytes accessed per row activation
system.mem_ctrl.bytesPerActivate::0-127           125     40.32%     40.32% # Bytes accessed per row activation
system.mem_ctrl.bytesPerActivate::128-255           66     21.29%     61.61% # Bytes accessed per row activation
system.mem_ctrl.bytesPerActivate::256-383           58     18.71%     80.32% # Bytes accessed per row activation
system.mem_ctrl.bytesPerActivate::384-511           16      5.16%     85.48% # Bytes accessed per row activation
system.mem_ctrl.bytesPerActivate::512-639            8      2.58%     88.06% # Bytes accessed per row activation
system.mem_ctrl.bytesPerActivate::640-767            9      2.90%     90.97% # Bytes accessed per row activation
system.mem_ctrl.bytesPerActivate::768-895            7      2.26%     93.23% # Bytes accessed per row activation
system.mem_ctrl.bytesPerActivate::896-1023            3      0.97%     94.19% # Bytes accessed per row activation
system.mem_ctrl.bytesPerActivate::1024-1151           18      5.81%    100.00% # Bytes accessed per row activation
system.mem_ctrl.bytesPerActivate::total           310                       # Bytes accessed per row activation
system.mem_ctrl.masterReadBytes::.cpu.inst        49920                       # Per-master bytes read from memory
system.mem_ctrl.masterReadBytes::.cpu.data        30848                       # Per-master bytes read from memory
system.mem_ctrl.masterReadRate::.cpu.inst 144749146.423678338528                       # Per-master bytes read from memory rate (Bytes/sec)
system.mem_ctrl.masterReadRate::.cpu.data 89447549.456683278084                       # Per-master bytes read from memory rate (Bytes/sec)
system.mem_ctrl.masterReadAccesses::.cpu.inst          780                       # Per-master read serviced memory accesses
system.mem_ctrl.masterReadAccesses::.cpu.data          482                       # Per-master read serviced memory accesses
system.mem_ctrl.masterReadTotalLat::.cpu.inst     25687500                       # Per-master read total memory access latency
system.mem_ctrl.masterReadTotalLat::.cpu.data     19312750                       # Per-master read total memory access latency
system.mem_ctrl.masterReadAvgLat::.cpu.inst     32932.69                       # Per-master read average memory access latency
system.mem_ctrl.masterReadAvgLat::.cpu.data     40067.95                       # Per-master read average memory access latency
system.mem_ctrl.totQLat                      21337750                       # Total ticks spent queuing
system.mem_ctrl.totMemAccLat                 45000250                       # Total ticks spent from burst creation until serviced by the DRAM
system.mem_ctrl.totBusLat                     6310000                       # Total ticks spent in databus transfers
system.mem_ctrl.avgQLat                      16907.88                       # Average queueing delay per DRAM burst
system.mem_ctrl.avgBusLat                     5000.00                       # Average bus latency per DRAM burst
system.mem_ctrl.avgMemAccLat                 35657.88                       # Average memory access latency per DRAM burst
system.mem_ctrl.avgRdBW                        234.20                       # Average DRAM read bandwidth in MiByte/s
system.mem_ctrl.avgWrBW                          0.00                       # Average achieved write bandwidth in MiByte/s
system.mem_ctrl.avgRdBWSys                     234.20                       # Average system read bandwidth in MiByte/s
system.mem_ctrl.avgWrBWSys                       0.00                       # Average system write bandwidth in MiByte/s
system.mem_ctrl.peakBW                       12800.00                       # Theoretical peak bandwidth in MiByte/s
system.mem_ctrl.busUtil                          1.83                       # Data bus utilization in percentage
system.mem_ctrl.busUtilRead                      1.83                       # Data bus utilization in percentage for reads
system.mem_ctrl.busUtilWrite                     0.00                       # Data bus utilization in percentage for writes
system.mem_ctrl.avgRdQLen                        1.10                       # Average read queue length when enqueuing
system.mem_ctrl.avgWrQLen                        0.00                       # Average write queue length when enqueuing
system.mem_ctrl.readRowHits                       944                       # Number of row buffer hits during reads
system.mem_ctrl.writeRowHits                        0                       # Number of row buffer hits during writes
system.mem_ctrl.readRowHitRate                  74.80                       # Row buffer hit rate for reads
system.mem_ctrl.writeRowHitRate                   nan                       # Row buffer hit rate for writes
system.mem_ctrl.avgGap                      273208.40                       # Average gap between requests
system.mem_ctrl.pageHitRate                     74.80                       # Row buffer hit rate, read and write combined
system.mem_ctrl_0.actEnergy                   1192380                       # Energy for activate commands per rank (pJ)
system.mem_ctrl_0.preEnergy                    614790                       # Energy for precharge commands per rank (pJ)
system.mem_ctrl_0.readEnergy                  4748100                       # Energy for read commands per rank (pJ)
system.mem_ctrl_0.writeEnergy                       0                       # Energy for write commands per rank (pJ)
system.mem_ctrl_0.refreshEnergy          26429520.000000                       # Energy for refresh commands per rank (pJ)
system.mem_ctrl_0.actBackEnergy              13135650                       # Energy for active background per rank (pJ)
system.mem_ctrl_0.preBackEnergy                675360                       # Energy for precharge background per rank (pJ)
system.mem_ctrl_0.actPowerDownEnergy        125609190                       # Energy for active power-down per rank (pJ)
system.mem_ctrl_0.prePowerDownEnergy         12753120                       # Energy for precharge power-down per rank (pJ)
system.mem_ctrl_0.selfRefreshEnergy           1905240                       # Energy for self refresh per rank (pJ)
system.mem_ctrl_0.totalEnergy               187063350                       # Total energy per rank (pJ)
system.mem_ctrl_0.averagePower             542.413066                       # Core power per rank (mW)
system.mem_ctrl_0.totalIdleTime             314279750                       # Total Idle time Per DRAM Rank
system.mem_ctrl_0.memoryStateTime::IDLE        540500                       # Time in different power states
system.mem_ctrl_0.memoryStateTime::REF       11180000                       # Time in different power states
system.mem_ctrl_0.memoryStateTime::SREF       5636750                       # Time in different power states
system.mem_ctrl_0.memoryStateTime::PRE_PDN     33198750                       # Time in different power states
system.mem_ctrl_0.memoryStateTime::ACT       18832000                       # Time in different power states
system.mem_ctrl_0.memoryStateTime::ACT_PDN    275484500                       # Time in different power states
system.mem_ctrl_1.actEnergy                   1078140                       # Energy for activate commands per rank (pJ)
system.mem_ctrl_1.preEnergy                    561660                       # Energy for precharge commands per rank (pJ)
system.mem_ctrl_1.readEnergy                  4262580                       # Energy for read commands per rank (pJ)
system.mem_ctrl_1.writeEnergy                       0                       # Energy for write commands per rank (pJ)
system.mem_ctrl_1.refreshEnergy          12292800.000000                       # Energy for refresh commands per rank (pJ)
system.mem_ctrl_1.actBackEnergy               9237990                       # Energy for active background per rank (pJ)
system.mem_ctrl_1.preBackEnergy                822240                       # Energy for precharge background per rank (pJ)
system.mem_ctrl_1.actPowerDownEnergy         40476270                       # Energy for active power-down per rank (pJ)
system.mem_ctrl_1.prePowerDownEnergy         19234080                       # Energy for precharge power-down per rank (pJ)
system.mem_ctrl_1.selfRefreshEnergy          46830000                       # Energy for self refresh per rank (pJ)
system.mem_ctrl_1.totalEnergy               134795760                       # Total energy per rank (pJ)
system.mem_ctrl_1.averagePower             390.856795                       # Core power per rank (mW)
system.mem_ctrl_1.totalIdleTime             322201500                       # Total Idle time Per DRAM Rank
system.mem_ctrl_1.memoryStateTime::IDLE       1564500                       # Time in different power states
system.mem_ctrl_1.memoryStateTime::REF        5200000                       # Time in different power states
system.mem_ctrl_1.memoryStateTime::SREF     183618000                       # Time in different power states
system.mem_ctrl_1.memoryStateTime::PRE_PDN     50086750                       # Time in different power states
system.mem_ctrl_1.memoryStateTime::ACT       15633750                       # Time in different power states
system.mem_ctrl_1.memoryStateTime::ACT_PDN     88769500                       # Time in different power states
system.pwrStateResidencyTicks::UNDEFINED    344872500                       # Cumulative time (in ticks) in various power states
system.cpu.branchPred.lookups                  122879                       # Number of BP lookups
system.cpu.branchPred.condPredicted            122879                       # Number of conditional branches predicted
system.cpu.branchPred.condIncorrect              4481                       # Number of conditional branches incorrect
system.cpu.branchPred.BTBLookups               108336                       # Number of BTB lookups
system.cpu.branchPred.BTBHits                       0                       # Number of BTB hits
system.cpu.branchPred.BTBCorrect                    0                       # Number of correct BTB predictions (this stat may not work properly.
system.cpu.branchPred.BTBHitPct              0.000000                       # BTB Hit Percentage
system.cpu.branchPred.usedRAS                    4959                       # Number of times the RAS was used to get a target.
system.cpu.branchPred.RASInCorrect                290                       # Number of incorrect RAS predictions.
system.cpu.branchPred.indirectLookups          108336                       # Number of indirect predictor lookups.
system.cpu.branchPred.indirectHits              44955                       # Number of indirect target hits.
system.cpu.branchPred.indirectMisses            63381                       # Number of indirect misses.
system.cpu.branchPredindirectMispredicted         3642                       # Number of mispredicted indirect branches.
system.cpu.dtb.walker.pwrStateResidencyTicks::UNDEFINED    344872500                       # Cumulative time (in ticks) in various power states
system.cpu.dtb.rdAccesses                      115758                       # TLB accesses on read requests
system.cpu.dtb.wrAccesses                       71509                       # TLB accesses on write requests
system.cpu.dtb.rdMisses                           576                       # TLB misses on read requests
system.cpu.dtb.wrMisses                            38                       # TLB misses on write requests
system.cpu.apic_clk_domain.clock                 8000                       # Clock period in ticks
system.cpu.interrupts.pwrStateResidencyTicks::UNDEFINED    344872500                       # Cumulative time (in ticks) in various power states
system.cpu.itb.walker.pwrStateResidencyTicks::UNDEFINED    344872500                       # Cumulative time (in ticks) in various power states
system.cpu.itb.rdAccesses                           0                       # TLB accesses on read requests
system.cpu.itb.wrAccesses                       78472                       # TLB accesses on write requests
system.cpu.itb.rdMisses                             0                       # TLB misses on read requests
system.cpu.itb.wrMisses                           148                       # TLB misses on write requests
system.cpu.workload.numSyscalls                    16                       # Number of system calls
system.cpu.pwrStateResidencyTicks::ON       344872500                       # Cumulative time (in ticks) in various power states
system.cpu.numCycles                           689746                       # number of cpu cycles simulated
system.cpu.numWorkItemsStarted                      0                       # number of work items this cpu started
system.cpu.numWorkItemsCompleted                    0                       # number of work items this cpu completed
system.cpu.fetch.icacheStallCycles              50555                       # Number of cycles fetch is stalled on an Icache miss
system.cpu.fetch.Insts                         554813                       # Number of instructions fetch has processed
system.cpu.fetch.Branches                      122879                       # Number of branches that fetch encountered
system.cpu.fetch.predictedBranches              49914                       # Number of branches that fetch has predicted taken
system.cpu.fetch.Cycles                        592521                       # Number of cycles fetch has run and was not squashing or blocked
system.cpu.fetch.SquashCycles                    9174                       # Number of cycles fetch has spent squashing
system.cpu.fetch.MiscStallCycles                   65                       # Number of cycles fetch has spent waiting on interrupts, or bad addresses, or out of MSHRs
system.cpu.fetch.PendingTrapStallCycles           845                       # Number of stall cycles due to pending traps
system.cpu.fetch.PendingQuiesceStallCycles           18                       # Number of stall cycles due to pending quiesce instructions
system.cpu.fetch.IcacheWaitRetryStallCycles           16                       # Number of stall cycles due to full MSHR
system.cpu.fetch.CacheLines                     78381                       # Number of cache lines fetched
system.cpu.fetch.IcacheSquashes                   455                       # Number of outstanding Icache misses that were squashed
system.cpu.fetch.rateDist::samples             648607                       # Number of instructions fetched each cycle (Total)
system.cpu.fetch.rateDist::mean              1.586329                       # Number of instructions fetched each cycle (Total)
system.cpu.fetch.rateDist::stdev             0.767113                       # Number of instructions fetched each cycle (Total)
system.cpu.fetch.rateDist::underflows               0      0.00%      0.00% # Number of instructions fetched each cycle (Total)
system.cpu.fetch.rateDist::0                   112181     17.30%     17.30% # Number of instructions fetched each cycle (Total)
system.cpu.fetch.rateDist::1                    43948      6.78%     24.07% # Number of instructions fetched each cycle (Total)
system.cpu.fetch.rateDist::2                   492478     75.93%    100.00% # Number of instructions fetched each cycle (Total)
system.cpu.fetch.rateDist::overflows                0      0.00%    100.00% # Number of instructions fetched each cycle (Total)
system.cpu.fetch.rateDist::min_value                0                       # Number of instructions fetched each cycle (Total)
system.cpu.fetch.rateDist::max_value                2                       # Number of instructions fetched each cycle (Total)
system.cpu.fetch.rateDist::total               648607                       # Number of instructions fetched each cycle (Total)
system.cpu.fetch.branchRate                  0.178151                       # Number of branch fetches per cycle
system.cpu.fetch.rate                        0.804373                       # Number of inst fetches per cycle
system.cpu.decode.IdleCycles                    68110                       # Number of cycles decode is idle
system.cpu.decode.BlockedCycles                 54943                       # Number of cycles decode is blocked
system.cpu.decode.RunCycles                    511962                       # Number of cycles decode is running
system.cpu.decode.UnblockCycles                  9005                       # Number of cycles decode is unblocking
system.cpu.decode.SquashCycles                   4587                       # Number of cycles decode is squashing
system.cpu.decode.DecodedInsts                 989366                       # Number of instructions handled by decode
system.cpu.decode.SquashedInsts                 15292                       # Number of squashed instructions handled by decode
system.cpu.rename.SquashCycles                   4587                       # Number of cycles rename is squashing
system.cpu.rename.IdleCycles                    84617                       # Number of cycles rename is idle
system.cpu.rename.BlockCycles                   12772                       # Number of cycles rename is blocking
system.cpu.rename.serializeStallCycles           1667                       # count of cycles rename stalled for serializing inst
system.cpu.rename.RunCycles                    504198                       # Number of cycles rename is running
system.cpu.rename.UnblockCycles                 40766                       # Number of cycles rename is unblocking
system.cpu.rename.RenamedInsts                 974348                       # Number of instructions processed by rename
system.cpu.rename.SquashedInsts                  6868                       # Number of squashed instructions processed by rename
system.cpu.rename.ROBFullEvents                    53                       # Number of times rename has blocked due to ROB full
system.cpu.rename.IQFullEvents                   1620                       # Number of times rename has blocked due to IQ full
system.cpu.rename.LQFullEvents                     16                       # Number of times rename has blocked due to LQ full
system.cpu.rename.SQFullEvents                  34936                       # Number of times rename has blocked due to SQ full
system.cpu.rename.FullRegisterEvents              115                       # Number of times there has been no free registers
system.cpu.rename.RenamedOperands             1074371                       # Number of destination operands rename has renamed
system.cpu.rename.RenameLookups               2464663                       # Number of register rename lookups that rename has made
system.cpu.rename.int_rename_lookups          1439221                       # Number of integer rename lookups
system.cpu.rename.fp_rename_lookups              6197                       # Number of floating rename lookups
system.cpu.rename.CommittedMaps                971839                       # Number of HB maps that are committed
system.cpu.rename.UndoneMaps                   102532                       # Number of HB maps that are undone due to squashing
system.cpu.rename.serializingInsts                 28                       # count of serializing insts renamed
system.cpu.rename.tempSerializingInsts             25                       # count of temporary serializing insts renamed
system.cpu.rename.skidInsts                     12744                       # count of insts added to the skid buffer
system.cpu.memDep0.insertedLoads               121333                       # Number of loads inserted to the mem dependence unit.
system.cpu.memDep0.insertedStores               75988                       # Number of stores inserted to the mem dependence unit.
system.cpu.memDep0.conflictingLoads              8876                       # Number of conflicting loads.
system.cpu.memDep0.conflictingStores             4644                       # Number of conflicting stores.
system.cpu.iq.iqInstsAdded                     957793                       # Number of instructions added to the IQ (excludes non-spec)
system.cpu.iq.iqNonSpecInstsAdded                 739                       # Number of non-speculative instructions added to the IQ
system.cpu.iq.iqInstsIssued                    929265                       # Number of instructions issued
system.cpu.iq.iqSquashedInstsIssued              4302                       # Number of squashed instructions issued
system.cpu.iq.iqSquashedInstsExamined           80953                       # Number of squashed instructions iterated over during squash; mainly for profiling
system.cpu.iq.iqSquashedOperandsExamined       120603                       # Number of squashed operands that are examined and possibly removed from graph
system.cpu.iq.iqSquashedNonSpecRemoved            723                       # Number of squashed non-spec instructions that were removed
system.cpu.iq.issued_per_cycle::samples        648607                       # Number of insts issued each cycle
system.cpu.iq.issued_per_cycle::mean         1.432709                       # Number of insts issued each cycle
system.cpu.iq.issued_per_cycle::stdev        0.834313                       # Number of insts issued each cycle
system.cpu.iq.issued_per_cycle::underflows            0      0.00%      0.00% # Number of insts issued each cycle
system.cpu.iq.issued_per_cycle::0              146133     22.53%     22.53% # Number of insts issued each cycle
system.cpu.iq.issued_per_cycle::1               75683     11.67%     34.20% # Number of insts issued each cycle
system.cpu.iq.issued_per_cycle::2              426791     65.80%    100.00% # Number of insts issued each cycle
system.cpu.iq.issued_per_cycle::overflows            0      0.00%    100.00% # Number of insts issued each cycle
system.cpu.iq.issued_per_cycle::min_value            0                       # Number of insts issued each cycle
system.cpu.iq.issued_per_cycle::max_value            2                       # Number of insts issued each cycle
system.cpu.iq.issued_per_cycle::total          648607                       # Number of insts issued each cycle
system.cpu.iq.fu_full::No_OpClass                   0      0.00%      0.00% # attempts to use FU when none available
system.cpu.iq.fu_full::IntAlu                       0      0.00%      0.00% # attempts to use FU when none available
system.cpu.iq.fu_full::IntMult                      0      0.00%      0.00% # attempts to use FU when none available
system.cpu.iq.fu_full::IntDiv                       0      0.00%      0.00% # attempts to use FU when none available
system.cpu.iq.fu_full::FloatAdd                     0      0.00%      0.00% # attempts to use FU when none available
system.cpu.iq.fu_full::FloatCmp                     0      0.00%      0.00% # attempts to use FU when none available
system.cpu.iq.fu_full::FloatCvt                     0      0.00%      0.00% # attempts to use FU when none available
system.cpu.iq.fu_full::FloatMult                    0      0.00%      0.00% # attempts to use FU when none available
system.cpu.iq.fu_full::FloatMultAcc                 0      0.00%      0.00% # attempts to use FU when none available
system.cpu.iq.fu_full::FloatDiv                     0      0.00%      0.00% # attempts to use FU when none available
system.cpu.iq.fu_full::FloatMisc                    0      0.00%      0.00% # attempts to use FU when none available
system.cpu.iq.fu_full::FloatSqrt                    0      0.00%      0.00% # attempts to use FU when none available
system.cpu.iq.fu_full::SimdAdd                    247      0.89%      0.89% # attempts to use FU when none available
system.cpu.iq.fu_full::SimdAddAcc                   0      0.00%      0.89% # attempts to use FU when none available
system.cpu.iq.fu_full::SimdAlu                     68      0.24%      1.13% # attempts to use FU when none available
system.cpu.iq.fu_full::SimdCmp                      0      0.00%      1.13% # attempts to use FU when none available
system.cpu.iq.fu_full::SimdCvt                     58      0.21%      1.34% # attempts to use FU when none available
system.cpu.iq.fu_full::SimdMisc                   162      0.58%      1.92% # attempts to use FU when none available
system.cpu.iq.fu_full::SimdMult                     0      0.00%      1.92% # attempts to use FU when none available
system.cpu.iq.fu_full::SimdMultAcc                  0      0.00%      1.92% # attempts to use FU when none available
system.cpu.iq.fu_full::SimdShift                  120      0.43%      2.35% # attempts to use FU when none available
system.cpu.iq.fu_full::SimdShiftAcc                 0      0.00%      2.35% # attempts to use FU when none available
system.cpu.iq.fu_full::SimdSqrt                     0      0.00%      2.35% # attempts to use FU when none available
system.cpu.iq.fu_full::SimdFloatAdd                 0      0.00%      2.35% # attempts to use FU when none available
system.cpu.iq.fu_full::SimdFloatAlu                 0      0.00%      2.35% # attempts to use FU when none available
system.cpu.iq.fu_full::SimdFloatCmp                 0      0.00%      2.35% # attempts to use FU when none available
system.cpu.iq.fu_full::SimdFloatCvt                 0      0.00%      2.35% # attempts to use FU when none available
system.cpu.iq.fu_full::SimdFloatDiv                 0      0.00%      2.35% # attempts to use FU when none available
system.cpu.iq.fu_full::SimdFloatMisc                0      0.00%      2.35% # attempts to use FU when none available
system.cpu.iq.fu_full::SimdFloatMult                0      0.00%      2.35% # attempts to use FU when none available
system.cpu.iq.fu_full::SimdFloatMultAcc             0      0.00%      2.35% # attempts to use FU when none available
system.cpu.iq.fu_full::SimdFloatSqrt                0      0.00%      2.35% # attempts to use FU when none available
system.cpu.iq.fu_full::SimdAes                      0      0.00%      2.35% # attempts to use FU when none available
system.cpu.iq.fu_full::SimdAesMix                   0      0.00%      2.35% # attempts to use FU when none available
system.cpu.iq.fu_full::SimdSha1Hash                 0      0.00%      2.35% # attempts to use FU when none available
system.cpu.iq.fu_full::SimdSha1Hash2                0      0.00%      2.35% # attempts to use FU when none available
system.cpu.iq.fu_full::SimdSha256Hash               0      0.00%      2.35% # attempts to use FU when none available
system.cpu.iq.fu_full::SimdSha256Hash2              0      0.00%      2.35% # attempts to use FU when none available
system.cpu.iq.fu_full::SimdShaSigma2                0      0.00%      2.35% # attempts to use FU when none available
system.cpu.iq.fu_full::SimdShaSigma3                0      0.00%      2.35% # attempts to use FU when none available
system.cpu.iq.fu_full::MemRead                  20565     73.72%     76.07% # attempts to use FU when none available
system.cpu.iq.fu_full::MemWrite                  6676     23.93%    100.00% # attempts to use FU when none available
system.cpu.iq.fu_full::FloatMemRead                 0      0.00%    100.00% # attempts to use FU when none available
system.cpu.iq.fu_full::FloatMemWrite                0      0.00%    100.00% # attempts to use FU when none available
system.cpu.iq.fu_full::IprAccess                    0      0.00%    100.00% # attempts to use FU when none available
system.cpu.iq.fu_full::InstPrefetch                 0      0.00%    100.00% # attempts to use FU when none available
system.cpu.iq.FU_type_0::No_OpClass              1625      0.17%      0.17% # Type of FU issued
system.cpu.iq.FU_type_0::IntAlu                734849     79.08%     79.25% # Type of FU issued
system.cpu.iq.FU_type_0::IntMult                 1154      0.12%     79.38% # Type of FU issued
system.cpu.iq.FU_type_0::IntDiv                    30      0.00%     79.38% # Type of FU issued
system.cpu.iq.FU_type_0::FloatAdd                 617      0.07%     79.45% # Type of FU issued
system.cpu.iq.FU_type_0::FloatCmp                   0      0.00%     79.45% # Type of FU issued
system.cpu.iq.FU_type_0::FloatCvt                   0      0.00%     79.45% # Type of FU issued
system.cpu.iq.FU_type_0::FloatMult                  0      0.00%     79.45% # Type of FU issued
system.cpu.iq.FU_type_0::FloatMultAcc               0      0.00%     79.45% # Type of FU issued
system.cpu.iq.FU_type_0::FloatDiv                   0      0.00%     79.45% # Type of FU issued
system.cpu.iq.FU_type_0::FloatMisc                  0      0.00%     79.45% # Type of FU issued
system.cpu.iq.FU_type_0::FloatSqrt                  0      0.00%     79.45% # Type of FU issued
system.cpu.iq.FU_type_0::SimdAdd                  375      0.04%     79.49% # Type of FU issued
system.cpu.iq.FU_type_0::SimdAddAcc                 0      0.00%     79.49% # Type of FU issued
system.cpu.iq.FU_type_0::SimdAlu                  108      0.01%     79.50% # Type of FU issued
system.cpu.iq.FU_type_0::SimdCmp                    6      0.00%     79.50% # Type of FU issued
system.cpu.iq.FU_type_0::SimdCvt                  165      0.02%     79.52% # Type of FU issued
system.cpu.iq.FU_type_0::SimdMisc                 277      0.03%     79.55% # Type of FU issued
system.cpu.iq.FU_type_0::SimdMult                   0      0.00%     79.55% # Type of FU issued
system.cpu.iq.FU_type_0::SimdMultAcc                0      0.00%     79.55% # Type of FU issued
system.cpu.iq.FU_type_0::SimdShift                186      0.02%     79.57% # Type of FU issued
system.cpu.iq.FU_type_0::SimdShiftAcc               0      0.00%     79.57% # Type of FU issued
system.cpu.iq.FU_type_0::SimdSqrt                   0      0.00%     79.57% # Type of FU issued
system.cpu.iq.FU_type_0::SimdFloatAdd               0      0.00%     79.57% # Type of FU issued
system.cpu.iq.FU_type_0::SimdFloatAlu               0      0.00%     79.57% # Type of FU issued
system.cpu.iq.FU_type_0::SimdFloatCmp               0      0.00%     79.57% # Type of FU issued
system.cpu.iq.FU_type_0::SimdFloatCvt               0      0.00%     79.57% # Type of FU issued
system.cpu.iq.FU_type_0::SimdFloatDiv               0      0.00%     79.57% # Type of FU issued
system.cpu.iq.FU_type_0::SimdFloatMisc              0      0.00%     79.57% # Type of FU issued
system.cpu.iq.FU_type_0::SimdFloatMult              0      0.00%     79.57% # Type of FU issued
system.cpu.iq.FU_type_0::SimdFloatMultAcc            0      0.00%     79.57% # Type of FU issued
system.cpu.iq.FU_type_0::SimdFloatSqrt              0      0.00%     79.57% # Type of FU issued
system.cpu.iq.FU_type_0::SimdAes                    0      0.00%     79.57% # Type of FU issued
system.cpu.iq.FU_type_0::SimdAesMix                 0      0.00%     79.57% # Type of FU issued
system.cpu.iq.FU_type_0::SimdSha1Hash               0      0.00%     79.57% # Type of FU issued
system.cpu.iq.FU_type_0::SimdSha1Hash2              0      0.00%     79.57% # Type of FU issued
system.cpu.iq.FU_type_0::SimdSha256Hash             0      0.00%     79.57% # Type of FU issued
system.cpu.iq.FU_type_0::SimdSha256Hash2            0      0.00%     79.57% # Type of FU issued
system.cpu.iq.FU_type_0::SimdShaSigma2              0      0.00%     79.57% # Type of FU issued
system.cpu.iq.FU_type_0::SimdShaSigma3              0      0.00%     79.57% # Type of FU issued
system.cpu.iq.FU_type_0::MemRead               114841     12.36%     91.93% # Type of FU issued
system.cpu.iq.FU_type_0::MemWrite               70783      7.62%     99.54% # Type of FU issued
system.cpu.iq.FU_type_0::FloatMemRead            1959      0.21%     99.75% # Type of FU issued
system.cpu.iq.FU_type_0::FloatMemWrite           2290      0.25%    100.00% # Type of FU issued
system.cpu.iq.FU_type_0::IprAccess                  0      0.00%    100.00% # Type of FU issued
system.cpu.iq.FU_type_0::InstPrefetch               0      0.00%    100.00% # Type of FU issued
system.cpu.iq.FU_type_0::total                 929265                       # Type of FU issued
system.cpu.iq.rate                           1.347257                       # Inst issue rate
system.cpu.iq.fu_busy_cnt                       27896                       # FU busy when requested
system.cpu.iq.fu_busy_rate                   0.030019                       # FU busy rate (busy events/executed inst)
system.cpu.iq.int_inst_queue_reads            2525646                       # Number of integer instruction queue reads
system.cpu.iq.int_inst_queue_writes           1032740                       # Number of integer instruction queue writes
system.cpu.iq.int_inst_queue_wakeup_accesses       905905                       # Number of integer instruction queue wakeup accesses
system.cpu.iq.fp_inst_queue_reads               13689                       # Number of floating instruction queue reads
system.cpu.iq.fp_inst_queue_writes               6794                       # Number of floating instruction queue writes
system.cpu.iq.fp_inst_queue_wakeup_accesses         6445                       # Number of floating instruction queue wakeup accesses
system.cpu.iq.vec_inst_queue_reads                  0                       # Number of vector instruction queue reads
system.cpu.iq.vec_inst_queue_writes                 0                       # Number of vector instruction queue writes
system.cpu.iq.vec_inst_queue_wakeup_accesses            0                       # Number of vector instruction queue wakeup accesses
system.cpu.iq.int_alu_accesses                 948367                       # Number of integer alu accesses
system.cpu.iq.fp_alu_accesses                    7169                       # Number of floating point alu accesses
system.cpu.iq.vec_alu_accesses                      0                       # Number of vector alu accesses
system.cpu.iew.lsq.thread0.forwLoads            10873                       # Number of loads that had data forwarded from stores
system.cpu.iew.lsq.thread0.invAddrLoads             0                       # Number of loads ignored due to an invalid address
system.cpu.iew.lsq.thread0.squashedLoads        11723                       # Number of loads squashed
system.cpu.iew.lsq.thread0.ignoredResponses           46                       # Number of memory responses ignored because the instruction is squashed
system.cpu.iew.lsq.thread0.memOrderViolation           49                       # Number of memory ordering violations
system.cpu.iew.lsq.thread0.squashedStores         6101                       # Number of stores squashed
system.cpu.iew.lsq.thread0.invAddrSwpfs             0                       # Number of software prefetches ignored due to an invalid address
system.cpu.iew.lsq.thread0.blockedLoads             0                       # Number of blocked loads due to partial load-store forwarding
system.cpu.iew.lsq.thread0.rescheduledLoads            1                       # Number of loads that were rescheduled
system.cpu.iew.lsq.thread0.cacheBlocked            15                       # Number of times an access to memory failed due to the cache being blocked
system.cpu.iew.iewIdleCycles                        0                       # Number of cycles IEW is idle
system.cpu.iew.iewSquashCycles                   4587                       # Number of cycles IEW is squashing
system.cpu.iew.iewBlockCycles                    4231                       # Number of cycles IEW is blocking
system.cpu.iew.iewUnblockCycles                  1524                       # Number of cycles IEW is unblocking
system.cpu.iew.iewDispatchedInsts              958532                       # Number of instructions dispatched to IQ
system.cpu.iew.iewDispSquashedInsts              4780                       # Number of squashed instructions skipped by dispatch
system.cpu.iew.iewDispLoadInsts                121333                       # Number of dispatched load instructions
system.cpu.iew.iewDispStoreInsts                75988                       # Number of dispatched store instructions
system.cpu.iew.iewDispNonSpecInsts                259                       # Number of dispatched non-speculative instructions
system.cpu.iew.iewIQFullEvents                     35                       # Number of times the IQ has become full, causing a stall
system.cpu.iew.iewLSQFullEvents                  1468                       # Number of times the LSQ has become full, causing a stall
system.cpu.iew.memOrderViolationEvents             49                       # Number of memory order violations
system.cpu.iew.predictedTakenIncorrect            583                       # Number of branches that were predicted taken incorrectly
system.cpu.iew.predictedNotTakenIncorrect         4405                       # Number of branches that were predicted not taken incorrectly
system.cpu.iew.branchMispredicts                 4988                       # Number of branch mispredicts detected at execute
system.cpu.iew.iewExecutedInsts                916039                       # Number of executed instructions
system.cpu.iew.iewExecLoadInsts                115749                       # Number of load instructions executed
system.cpu.iew.iewExecSquashedInsts             13226                       # Number of squashed instructions skipped in execute
system.cpu.iew.exec_swp                             0                       # number of swp insts executed
system.cpu.iew.exec_nop                             0                       # number of nop insts executed
system.cpu.iew.exec_refs                       187258                       # number of memory reference insts executed
system.cpu.iew.exec_branches                   107719                       # Number of branches executed
system.cpu.iew.exec_stores                      71509                       # Number of stores executed
system.cpu.iew.exec_rate                     1.328082                       # Inst execution rate
system.cpu.iew.wb_sent                         914230                       # cumulative count of insts sent to commit
system.cpu.iew.wb_count                        912350                       # cumulative count of insts written-back
system.cpu.iew.wb_producers                    656873                       # num instructions producing a value
system.cpu.iew.wb_consumers                   1002747                       # num instructions consuming a value
system.cpu.iew.wb_rate                       1.322733                       # insts written-back per cycle
system.cpu.iew.wb_fanout                     0.655074                       # average fanout of values written-back
system.cpu.commit.commitSquashedInsts           72993                       # The number of squashed insts skipped by commit
system.cpu.commit.commitNonSpecStalls              16                       # The number of times commit has been forced to stall to communicate backwards
system.cpu.commit.branchMispredicts              4543                       # The number of times a branch was mispredicted
system.cpu.commit.committed_per_cycle::samples       642044                       # Number of insts commited each cycle
system.cpu.commit.committed_per_cycle::mean     1.366850                       # Number of insts commited each cycle
system.cpu.commit.committed_per_cycle::stdev     0.875395                       # Number of insts commited each cycle
system.cpu.commit.committed_per_cycle::underflows            0      0.00%      0.00% # Number of insts commited each cycle
system.cpu.commit.committed_per_cycle::0       171440     26.70%     26.70% # Number of insts commited each cycle
system.cpu.commit.committed_per_cycle::1        63630      9.91%     36.61% # Number of insts commited each cycle
system.cpu.commit.committed_per_cycle::2       406974     63.39%    100.00% # Number of insts commited each cycle
system.cpu.commit.committed_per_cycle::overflows            0      0.00%    100.00% # Number of insts commited each cycle
system.cpu.commit.committed_per_cycle::min_value            0                       # Number of insts commited each cycle
system.cpu.commit.committed_per_cycle::max_value            2                       # Number of insts commited each cycle
system.cpu.commit.committed_per_cycle::total       642044                       # Number of insts commited each cycle
system.cpu.commit.committedInsts               472405                       # Number of instructions committed
system.cpu.commit.committedOps                 877578                       # Number of ops (including micro ops) committed
system.cpu.commit.swp_count                         0                       # Number of s/w prefetches committed
system.cpu.commit.refs                         179497                       # Number of memory references committed
system.cpu.commit.loads                        109610                       # Number of loads committed
system.cpu.commit.membars                           0                       # Number of memory barriers committed
system.cpu.commit.branches                     106107                       # Number of branches committed
system.cpu.commit.vec_insts                         0                       # Number of committed Vector instructions.
system.cpu.commit.fp_insts                       6372                       # Number of committed floating point instructions.
system.cpu.commit.int_insts                    874022                       # Number of committed integer instructions.
system.cpu.commit.function_calls                 4413                       # Number of function calls committed.
system.cpu.commit.op_class_0::No_OpClass          715      0.08%      0.08% # Class of committed instruction
system.cpu.commit.op_class_0::IntAlu           694484     79.14%     79.22% # Class of committed instruction
system.cpu.commit.op_class_0::IntMult            1144      0.13%     79.35% # Class of committed instruction
system.cpu.commit.op_class_0::IntDiv               28      0.00%     79.35% # Class of committed instruction
system.cpu.commit.op_class_0::FloatAdd            615      0.07%     79.42% # Class of committed instruction
system.cpu.commit.op_class_0::FloatCmp              0      0.00%     79.42% # Class of committed instruction
system.cpu.commit.op_class_0::FloatCvt              0      0.00%     79.42% # Class of committed instruction
system.cpu.commit.op_class_0::FloatMult             0      0.00%     79.42% # Class of committed instruction
system.cpu.commit.op_class_0::FloatMultAcc            0      0.00%     79.42% # Class of committed instruction
system.cpu.commit.op_class_0::FloatDiv              0      0.00%     79.42% # Class of committed instruction
system.cpu.commit.op_class_0::FloatMisc             0      0.00%     79.42% # Class of committed instruction
system.cpu.commit.op_class_0::FloatSqrt             0      0.00%     79.42% # Class of committed instruction
system.cpu.commit.op_class_0::SimdAdd             374      0.04%     79.46% # Class of committed instruction
system.cpu.commit.op_class_0::SimdAddAcc            0      0.00%     79.46% # Class of committed instruction
system.cpu.commit.op_class_0::SimdAlu             102      0.01%     79.48% # Class of committed instruction
system.cpu.commit.op_class_0::SimdCmp               6      0.00%     79.48% # Class of committed instruction
system.cpu.commit.op_class_0::SimdCvt             156      0.02%     79.49% # Class of committed instruction
system.cpu.commit.op_class_0::SimdMisc            271      0.03%     79.53% # Class of committed instruction
system.cpu.commit.op_class_0::SimdMult              0      0.00%     79.53% # Class of committed instruction
system.cpu.commit.op_class_0::SimdMultAcc            0      0.00%     79.53% # Class of committed instruction
system.cpu.commit.op_class_0::SimdShift           186      0.02%     79.55% # Class of committed instruction
system.cpu.commit.op_class_0::SimdShiftAcc            0      0.00%     79.55% # Class of committed instruction
system.cpu.commit.op_class_0::SimdSqrt              0      0.00%     79.55% # Class of committed instruction
system.cpu.commit.op_class_0::SimdFloatAdd            0      0.00%     79.55% # Class of committed instruction
system.cpu.commit.op_class_0::SimdFloatAlu            0      0.00%     79.55% # Class of committed instruction
system.cpu.commit.op_class_0::SimdFloatCmp            0      0.00%     79.55% # Class of committed instruction
system.cpu.commit.op_class_0::SimdFloatCvt            0      0.00%     79.55% # Class of committed instruction
system.cpu.commit.op_class_0::SimdFloatDiv            0      0.00%     79.55% # Class of committed instruction
system.cpu.commit.op_class_0::SimdFloatMisc            0      0.00%     79.55% # Class of committed instruction
system.cpu.commit.op_class_0::SimdFloatMult            0      0.00%     79.55% # Class of committed instruction
system.cpu.commit.op_class_0::SimdFloatMultAcc            0      0.00%     79.55% # Class of committed instruction
system.cpu.commit.op_class_0::SimdFloatSqrt            0      0.00%     79.55% # Class of committed instruction
system.cpu.commit.op_class_0::SimdAes               0      0.00%     79.55% # Class of committed instruction
system.cpu.commit.op_class_0::SimdAesMix            0      0.00%     79.55% # Class of committed instruction
system.cpu.commit.op_class_0::SimdSha1Hash            0      0.00%     79.55% # Class of committed instruction
system.cpu.commit.op_class_0::SimdSha1Hash2            0      0.00%     79.55% # Class of committed instruction
system.cpu.commit.op_class_0::SimdSha256Hash            0      0.00%     79.55% # Class of committed instruction
system.cpu.commit.op_class_0::SimdSha256Hash2            0      0.00%     79.55% # Class of committed instruction
system.cpu.commit.op_class_0::SimdShaSigma2            0      0.00%     79.55% # Class of committed instruction
system.cpu.commit.op_class_0::SimdShaSigma3            0      0.00%     79.55% # Class of committed instruction
system.cpu.commit.op_class_0::MemRead          107700     12.27%     91.82% # Class of committed instruction
system.cpu.commit.op_class_0::MemWrite          67660      7.71%     99.53% # Class of committed instruction
system.cpu.commit.op_class_0::FloatMemRead         1910      0.22%     99.75% # Class of committed instruction
system.cpu.commit.op_class_0::FloatMemWrite         2227      0.25%    100.00% # Class of committed instruction
system.cpu.commit.op_class_0::IprAccess             0      0.00%    100.00% # Class of committed instruction
system.cpu.commit.op_class_0::InstPrefetch            0      0.00%    100.00% # Class of committed instruction
system.cpu.commit.op_class_0::total            877578                       # Class of committed instruction
system.cpu.commit.bw_lim_events                406974                       # number cycles where commit BW limit reached
system.cpu.rob.rob_reads                      1185641                       # The number of ROB reads
system.cpu.rob.rob_writes                     1907707                       # The number of ROB writes
system.cpu.timesIdled                             477                       # Number of times that the entire CPU went into an idle state and unscheduled itself
system.cpu.idleCycles                           41139                       # Total number of cycles that the CPU has spent unscheduled due to idling
system.cpu.committedInsts                      472405                       # Number of Instructions Simulated
system.cpu.committedOps                        877578                       # Number of Ops (including micro ops) Simulated
system.cpu.cpi                               1.460073                       # CPI: Cycles Per Instruction
system.cpu.cpi_total                         1.460073                       # CPI: Total CPI of All Threads
system.cpu.ipc                               0.684897                       # IPC: Instructions Per Cycle
system.cpu.ipc_total                         0.684897                       # IPC: Total IPC of All Threads
system.cpu.int_regfile_reads                  1339593                       # number of integer regfile reads
system.cpu.int_regfile_writes                  729218                       # number of integer regfile writes
system.cpu.fp_regfile_reads                      5996                       # number of floating regfile reads
system.cpu.fp_regfile_writes                     4088                       # number of floating regfile writes
system.cpu.cc_regfile_reads                    534311                       # number of cc regfile reads
system.cpu.cc_regfile_writes                   276293                       # number of cc regfile writes
system.cpu.misc_regfile_reads                  413605                       # number of misc regfile reads
system.cpu.dcache.tags.pwrStateResidencyTicks::UNDEFINED    344872500                       # Cumulative time (in ticks) in various power states
system.cpu.dcache.tags.tagsinuse           351.026597                       # Cycle average of tags in use
system.cpu.dcache.tags.total_refs              174032                       # Total number of references to valid blocks.
system.cpu.dcache.tags.sampled_refs               488                       # Sample count of references to valid blocks.
system.cpu.dcache.tags.avg_refs            356.622951                       # Average number of references to valid blocks.
system.cpu.dcache.tags.warmup_cycle            170000                       # Cycle when the warmup percentage was hit.
system.cpu.dcache.tags.occ_blocks::.cpu.data   351.026597                       # Average occupied blocks per requestor
system.cpu.dcache.tags.occ_percent::.cpu.data     0.685599                       # Average percentage of cache occupancy
system.cpu.dcache.tags.occ_percent::total     0.685599                       # Average percentage of cache occupancy
system.cpu.dcache.tags.occ_task_id_blocks::1024          457                       # Occupied blocks per task id
system.cpu.dcache.tags.age_task_id_blocks_1024::0           13                       # Occupied blocks per task id
system.cpu.dcache.tags.age_task_id_blocks_1024::1           45                       # Occupied blocks per task id
system.cpu.dcache.tags.age_task_id_blocks_1024::2          399                       # Occupied blocks per task id
system.cpu.dcache.tags.occ_task_id_percent::1024     0.892578                       # Percentage of cache occupancy per task id
system.cpu.dcache.tags.tag_accesses           1394088                       # Number of tag accesses
system.cpu.dcache.tags.data_accesses          1394088                       # Number of data accesses
system.cpu.dcache.pwrStateResidencyTicks::UNDEFINED    344872500                       # Cumulative time (in ticks) in various power states
system.cpu.dcache.ReadReq_hits::.cpu.data       103971                       # number of ReadReq hits
system.cpu.dcache.ReadReq_hits::total          103971                       # number of ReadReq hits
system.cpu.dcache.WriteReq_hits::.cpu.data        69573                       # number of WriteReq hits
system.cpu.dcache.WriteReq_hits::total          69573                       # number of WriteReq hits
system.cpu.dcache.demand_hits::.cpu.data       173544                       # number of demand (read+write) hits
system.cpu.dcache.demand_hits::total           173544                       # number of demand (read+write) hits
system.cpu.dcache.overall_hits::.cpu.data       173544                       # number of overall hits
system.cpu.dcache.overall_hits::total          173544                       # number of overall hits
system.cpu.dcache.ReadReq_misses::.cpu.data          342                       # number of ReadReq misses
system.cpu.dcache.ReadReq_misses::total           342                       # number of ReadReq misses
system.cpu.dcache.WriteReq_misses::.cpu.data          314                       # number of WriteReq misses
system.cpu.dcache.WriteReq_misses::total          314                       # number of WriteReq misses
system.cpu.dcache.demand_misses::.cpu.data          656                       # number of demand (read+write) misses
system.cpu.dcache.demand_misses::total            656                       # number of demand (read+write) misses
system.cpu.dcache.overall_misses::.cpu.data          656                       # number of overall misses
system.cpu.dcache.overall_misses::total           656                       # number of overall misses
system.cpu.dcache.ReadReq_miss_latency::.cpu.data     30254000                       # number of ReadReq miss cycles
system.cpu.dcache.ReadReq_miss_latency::total     30254000                       # number of ReadReq miss cycles
system.cpu.dcache.WriteReq_miss_latency::.cpu.data     26391500                       # number of WriteReq miss cycles
system.cpu.dcache.WriteReq_miss_latency::total     26391500                       # number of WriteReq miss cycles
system.cpu.dcache.demand_miss_latency::.cpu.data     56645500                       # number of demand (read+write) miss cycles
system.cpu.dcache.demand_miss_latency::total     56645500                       # number of demand (read+write) miss cycles
system.cpu.dcache.overall_miss_latency::.cpu.data     56645500                       # number of overall miss cycles
system.cpu.dcache.overall_miss_latency::total     56645500                       # number of overall miss cycles
system.cpu.dcache.ReadReq_accesses::.cpu.data       104313                       # number of ReadReq accesses(hits+misses)
system.cpu.dcache.ReadReq_accesses::total       104313                       # number of ReadReq accesses(hits+misses)
system.cpu.dcache.WriteReq_accesses::.cpu.data        69887                       # number of WriteReq accesses(hits+misses)
system.cpu.dcache.WriteReq_accesses::total        69887                       # number of WriteReq accesses(hits+misses)
system.cpu.dcache.demand_accesses::.cpu.data       174200                       # number of demand (read+write) accesses
system.cpu.dcache.demand_accesses::total       174200                       # number of demand (read+write) accesses
system.cpu.dcache.overall_accesses::.cpu.data       174200                       # number of overall (read+write) accesses
system.cpu.dcache.overall_accesses::total       174200                       # number of overall (read+write) accesses
system.cpu.dcache.ReadReq_miss_rate::.cpu.data     0.003279                       # miss rate for ReadReq accesses
system.cpu.dcache.ReadReq_miss_rate::total     0.003279                       # miss rate for ReadReq accesses
system.cpu.dcache.WriteReq_miss_rate::.cpu.data     0.004493                       # miss rate for WriteReq accesses
system.cpu.dcache.WriteReq_miss_rate::total     0.004493                       # miss rate for WriteReq accesses
system.cpu.dcache.demand_miss_rate::.cpu.data     0.003766                       # miss rate for demand accesses
system.cpu.dcache.demand_miss_rate::total     0.003766                       # miss rate for demand accesses
system.cpu.dcache.overall_miss_rate::.cpu.data     0.003766                       # miss rate for overall accesses
system.cpu.dcache.overall_miss_rate::total     0.003766                       # miss rate for overall accesses
system.cpu.dcache.ReadReq_avg_miss_latency::.cpu.data 88461.988304                       # average ReadReq miss latency
system.cpu.dcache.ReadReq_avg_miss_latency::total 88461.988304                       # average ReadReq miss latency
system.cpu.dcache.WriteReq_avg_miss_latency::.cpu.data 84049.363057                       # average WriteReq miss latency
system.cpu.dcache.WriteReq_avg_miss_latency::total 84049.363057                       # average WriteReq miss latency
system.cpu.dcache.demand_avg_miss_latency::.cpu.data 86349.847561                       # average overall miss latency
[...]
system.l3bus.snoop_fanout::overflows                0      0.00%    100.00% # Request fanout histogram
system.l3bus.snoop_fanout::min_value                0                       # Request fanout histogram
system.l3bus.snoop_fanout::max_value                0                       # Request fanout histogram
system.l3bus.snoop_fanout::total                 1262                       # Request fanout histogram
system.l3bus.reqLayer0.occupancy               631000                       # Layer occupancy (ticks)
system.l3bus.reqLayer0.utilization                0.2                       # Layer utilization (%)
system.l3bus.respLayer0.occupancy             3155000                       # Layer occupancy (ticks)
system.l3bus.respLayer0.utilization               0.9                       # Layer utilization (%)
system.l3cache.tags.pwrStateResidencyTicks::UNDEFINED    344872500                       # Cumulative time (in ticks) in various power states
system.l3cache.tags.tagsinuse              954.870956                       # Cycle average of tags in use
system.l3cache.tags.total_refs                   1262                       # Total number of references to valid blocks.
system.l3cache.tags.sampled_refs                 1262                       # Sample count of references to valid blocks.
system.l3cache.tags.avg_refs                        1                       # Average number of references to valid blocks.
system.l3cache.tags.warmup_cycle                76000                       # Cycle when the warmup percentage was hit.
system.l3cache.tags.occ_blocks::.cpu.inst   600.913295                       # Average occupied blocks per requestor
system.l3cache.tags.occ_blocks::.cpu.data   353.957662                       # Average occupied blocks per requestor
system.l3cache.tags.occ_percent::.cpu.inst     0.018338                       # Average percentage of cache occupancy
system.l3cache.tags.occ_percent::.cpu.data     0.010802                       # Average percentage of cache occupancy
system.l3cache.tags.occ_percent::total       0.029140                       # Average percentage of cache occupancy
system.l3cache.tags.occ_task_id_blocks::1024         1262                       # Occupied blocks per task id
system.l3cache.tags.age_task_id_blocks_1024::0           60                       # Occupied blocks per task id
system.l3cache.tags.age_task_id_blocks_1024::1          130                       # Occupied blocks per task id
system.l3cache.tags.age_task_id_blocks_1024::2         1072                       # Occupied blocks per task id
system.l3cache.tags.occ_task_id_percent::1024     0.038513                       # Percentage of cache occupancy per task id
system.l3cache.tags.tag_accesses                21454                       # Number of tag accesses
system.l3cache.tags.data_accesses               21454                       # Number of data accesses
system.l3cache.pwrStateResidencyTicks::UNDEFINED    344872500                       # Cumulative time (in ticks) in various power states
system.l3cache.ReadExReq_misses::.cpu.data          311                       # number of ReadExReq misses
system.l3cache.ReadExReq_misses::total            311                       # number of ReadExReq misses
system.l3cache.ReadSharedReq_misses::.cpu.inst          780                       # number of ReadSharedReq misses
system.l3cache.ReadSharedReq_misses::.cpu.data          171                       # number of ReadSharedReq misses
system.l3cache.ReadSharedReq_misses::total          951                       # number of ReadSharedReq misses
system.l3cache.demand_misses::.cpu.inst           780                       # number of demand (read+write) misses
system.l3cache.demand_misses::.cpu.data           482                       # number of demand (read+write) misses
system.l3cache.demand_misses::total              1262                       # number of demand (read+write) misses
system.l3cache.overall_misses::.cpu.inst          780                       # number of overall misses
system.l3cache.overall_misses::.cpu.data          482                       # number of overall misses
system.l3cache.overall_misses::total             1262                       # number of overall misses
system.l3cache.ReadExReq_miss_latency::.cpu.data     22038500                       # number of ReadExReq miss cycles
system.l3cache.ReadExReq_miss_latency::total     22038500                       # number of ReadExReq miss cycles
system.l3cache.ReadSharedReq_miss_latency::.cpu.inst     54719500                       # number of ReadSharedReq miss cycles
system.l3cache.ReadSharedReq_miss_latency::.cpu.data     15200000                       # number of ReadSharedReq miss cycles
system.l3cache.ReadSharedReq_miss_latency::total     69919500                       # number of ReadSharedReq miss cycles
system.l3cache.demand_miss_latency::.cpu.inst     54719500                       # number of demand (read+write) miss cycles
system.l3cache.demand_miss_latency::.cpu.data     37238500                       # number of demand (read+write) miss cycles
system.l3cache.demand_miss_latency::total     91958000                       # number of demand (read+write) miss cycles
system.l3cache.overall_miss_latency::.cpu.inst     54719500                       # number of overall miss cycles
system.l3cache.overall_miss_latency::.cpu.data     37238500                       # number of overall miss cycles
system.l3cache.overall_miss_latency::total     91958000                       # number of overall miss cycles
system.l3cache.ReadExReq_accesses::.cpu.data          311                       # number of ReadExReq accesses(hits+misses)
system.l3cache.ReadExReq_accesses::total          311                       # number of ReadExReq accesses(hits+misses)
system.l3cache.ReadSharedReq_accesses::.cpu.inst          780                       # number of ReadSharedReq accesses(hits+misses)
system.l3cache.ReadSharedReq_accesses::.cpu.data          171                       # number of ReadSharedReq accesses(hits+misses)
system.l3cache.ReadSharedReq_accesses::total          951                       # number of ReadSharedReq accesses(hits+misses)
system.l3cache.demand_accesses::.cpu.inst          780                       # number of demand (read+write) accesses
system.l3cache.demand_accesses::.cpu.data          482                       # number of demand (read+write) accesses
system.l3cache.demand_accesses::total            1262                       # number of demand (read+write) accesses
system.l3cache.overall_accesses::.cpu.inst          780                       # number of overall (read+write) accesses
system.l3cache.overall_accesses::.cpu.data          482                       # number of overall (read+write) accesses
system.l3cache.overall_accesses::total           1262                       # number of overall (read+write) accesses
system.l3cache.ReadExReq_miss_rate::.cpu.data            1                       # miss rate for ReadExReq accesses
system.l3cache.ReadExReq_miss_rate::total            1                       # miss rate for ReadExReq accesses
system.l3cache.ReadSharedReq_miss_rate::.cpu.inst            1                       # miss rate for ReadSharedReq accesses
system.l3cache.ReadSharedReq_miss_rate::.cpu.data            1                       # miss rate for ReadSharedReq accesses
system.l3cache.ReadSharedReq_miss_rate::total            1                       # miss rate for ReadSharedReq accesses
system.l3cache.demand_miss_rate::.cpu.inst            1                       # miss rate for demand accesses
system.l3cache.demand_miss_rate::.cpu.data            1                       # miss rate for demand accesses
system.l3cache.demand_miss_rate::total              1                       # miss rate for demand accesses
system.l3cache.overall_miss_rate::.cpu.inst            1                       # miss rate for overall accesses
system.l3cache.overall_miss_rate::.cpu.data            1                       # miss rate for overall accesses
system.l3cache.overall_miss_rate::total             1                       # miss rate for overall accesses
system.l3cache.ReadExReq_avg_miss_latency::.cpu.data 70863.344051                       # average ReadExReq miss latency
system.l3cache.ReadExReq_avg_miss_latency::total 70863.344051                       # average ReadExReq miss latency
system.l3cache.ReadSharedReq_avg_miss_latency::.cpu.inst 70153.205128                       # average ReadSharedReq miss latency
system.l3cache.ReadSharedReq_avg_miss_latency::.cpu.data 88888.888889                       # average ReadSharedReq miss latency
system.l3cache.ReadSharedReq_avg_miss_latency::total 73522.082019                       # average ReadSharedReq miss latency
system.l3cache.demand_avg_miss_latency::.cpu.inst 70153.205128                       # average overall miss latency
system.l3cache.demand_avg_miss_latency::.cpu.data 77258.298755                       # average overall miss latency
system.l3cache.demand_avg_miss_latency::total 72866.877971                       # average overall miss latency
system.l3cache.overall_avg_miss_latency::.cpu.inst 70153.205128                       # average overall miss latency
system.l3cache.overall_avg_miss_latency::.cpu.data 77258.298755                       # average overall miss latency
system.l3cache.overall_avg_miss_latency::total 72866.877971                       # average overall miss latency
system.l3cache.blocked_cycles::no_mshrs             0                       # number of cycles access was blocked
system.l3cache.blocked_cycles::no_targets            0                       # number of cycles access was blocked
system.l3cache.blocked::no_mshrs                    0                       # number of cycles access was blocked
system.l3cache.blocked::no_targets                  0                       # number of cycles access was blocked
system.l3cache.avg_blocked_cycles::no_mshrs          nan                       # average number of cycles each access was blocked
system.l3cache.avg_blocked_cycles::no_targets          nan                       # average number of cycles each access was blocked
system.l3cache.ReadExReq_mshr_misses::.cpu.data          311                       # number of ReadExReq MSHR misses
system.l3cache.ReadExReq_mshr_misses::total          311                       # number of ReadExReq MSHR misses
system.l3cache.ReadSharedReq_mshr_misses::.cpu.inst          780                       # number of ReadSharedReq MSHR misses
system.l3cache.ReadSharedReq_mshr_misses::.cpu.data          171                       # number of ReadSharedReq MSHR misses
system.l3cache.ReadSharedReq_mshr_misses::total          951                       # number of ReadSharedReq MSHR misses
system.l3cache.demand_mshr_misses::.cpu.inst          780                       # number of demand (read+write) MSHR misses
system.l3cache.demand_mshr_misses::.cpu.data          482                       # number of demand (read+write) MSHR misses
system.l3cache.demand_mshr_misses::total         1262                       # number of demand (read+write) MSHR misses
system.l3cache.overall_mshr_misses::.cpu.inst          780                       # number of overall MSHR misses
system.l3cache.overall_mshr_misses::.cpu.data          482                       # number of overall MSHR misses
system.l3cache.overall_mshr_misses::total         1262                       # number of overall MSHR misses
system.l3cache.ReadExReq_mshr_miss_latency::.cpu.data     21416500                       # number of ReadExReq MSHR miss cycles
system.l3cache.ReadExReq_mshr_miss_latency::total     21416500                       # number of ReadExReq MSHR miss cycles
system.l3cache.ReadSharedReq_mshr_miss_latency::.cpu.inst     53159500                       # number of ReadSharedReq MSHR miss cycles
system.l3cache.ReadSharedReq_mshr_miss_latency::.cpu.data     14858000                       # number of ReadSharedReq MSHR miss cycles
system.l3cache.ReadSharedReq_mshr_miss_latency::total     68017500                       # number of ReadSharedReq MSHR miss cycles
system.l3cache.demand_mshr_miss_latency::.cpu.inst     53159500                       # number of demand (read+write) MSHR miss cycles
system.l3cache.demand_mshr_miss_latency::.cpu.data     36274500                       # number of demand (read+write) MSHR miss cycles
system.l3cache.demand_mshr_miss_latency::total     89434000                       # number of demand (read+write) MSHR miss cycles
system.l3cache.overall_mshr_miss_latency::.cpu.inst     53159500                       # number of overall MSHR miss cycles
system.l3cache.overall_mshr_miss_latency::.cpu.data     36274500                       # number of overall MSHR miss cycles
system.l3cache.overall_mshr_miss_latency::total     89434000                       # number of overall MSHR miss cycles
system.l3cache.ReadExReq_mshr_miss_rate::.cpu.data            1                       # mshr miss rate for ReadExReq accesses
system.l3cache.ReadExReq_mshr_miss_rate::total            1                       # mshr miss rate for ReadExReq accesses
system.l3cache.ReadSharedReq_mshr_miss_rate::.cpu.inst            1                       # mshr miss rate for ReadSharedReq accesses
system.l3cache.ReadSharedReq_mshr_miss_rate::.cpu.data            1                       # mshr miss rate for ReadSharedReq accesses
system.l3cache.ReadSharedReq_mshr_miss_rate::total            1                       # mshr miss rate for ReadSharedReq accesses
system.l3cache.demand_mshr_miss_rate::.cpu.inst            1                       # mshr miss rate for demand accesses
system.l3cache.demand_mshr_miss_rate::.cpu.data            1                       # mshr miss rate for demand accesses
system.l3cache.demand_mshr_miss_rate::total            1                       # mshr miss rate for demand accesses
system.l3cache.overall_mshr_miss_rate::.cpu.inst            1                       # mshr miss rate for overall accesses
system.l3cache.overall_mshr_miss_rate::.cpu.data            1                       # mshr miss rate for overall accesses
system.l3cache.overall_mshr_miss_rate::total            1                       # mshr miss rate for overall accesses
system.l3cache.ReadExReq_avg_mshr_miss_latency::.cpu.data 68863.344051                       # average ReadExReq mshr miss latency
system.l3cache.ReadExReq_avg_mshr_miss_latency::total 68863.344051                       # average ReadExReq mshr miss latency
system.l3cache.ReadSharedReq_avg_mshr_miss_latency::.cpu.inst 68153.205128                       # average ReadSharedReq mshr miss latency
system.l3cache.ReadSharedReq_avg_mshr_miss_latency::.cpu.data 86888.888889                       # average ReadSharedReq mshr miss latency
system.l3cache.ReadSharedReq_avg_mshr_miss_latency::total 71522.082019                       # average ReadSharedReq mshr miss latency
system.l3cache.demand_avg_mshr_miss_latency::.cpu.inst 68153.205128                       # average overall mshr miss latency
system.l3cache.demand_avg_mshr_miss_latency::.cpu.data 75258.298755                       # average overall mshr miss latency
system.l3cache.demand_avg_mshr_miss_latency::total 70866.877971                       # average overall mshr miss latency
system.l3cache.overall_avg_mshr_miss_latency::.cpu.inst 68153.205128                       # average overall mshr miss latency
system.l3cache.overall_avg_mshr_miss_latency::.cpu.data 75258.298755                       # average overall mshr miss latency
system.l3cache.overall_avg_mshr_miss_latency::total 70866.877971                       # average overall mshr miss latency
system.l3cache.replacements                         0                       # number of replacements
system.membus.snoop_filter.tot_requests          1262                       # Total number of requests made to the snoop filter.
system.membus.snoop_filter.hit_single_requests            0                       # Number of requests hitting in the snoop filter with a single holder of the requested data.
system.membus.snoop_filter.hit_multi_requests            0                       # Number of requests hitting in the snoop filter with multiple (>1) holders of the requested data.
system.membus.snoop_filter.tot_snoops               0                       # Total number of snoops made to the snoop filter.
system.membus.snoop_filter.hit_single_snoops            0                       # Number of snoops hitting in the snoop filter with a single holder of the requested data.
system.membus.snoop_filter.hit_multi_snoops            0                       # Number of snoops hitting in the snoop filter with multiple (>1) holders of the requested data.
system.membus.pwrStateResidencyTicks::UNDEFINED    344872500                       # Cumulative time (in ticks) in various power states
system.membus.trans_dist::ReadResp                951                       # Transaction distribution
system.membus.trans_dist::ReadExReq               311                       # Transaction distribution
system.membus.trans_dist::ReadExResp              311                       # Transaction distribution
system.membus.trans_dist::ReadSharedReq           951                       # Transaction distribution
system.membus.pkt_count_system.l3cache.mem_side::system.mem_ctrl.port         2524                       # Packet count per connected master and slave (bytes)
system.membus.pkt_count_system.l3cache.mem_side::total         2524                       # Packet count per connected master and slave (bytes)
system.membus.pkt_count::total                   2524                       # Packet count per connected master and slave (bytes)
system.membus.pkt_size_system.l3cache.mem_side::system.mem_ctrl.port        80768                       # Cumulative packet size per connected master and slave (bytes)
system.membus.pkt_size_system.l3cache.mem_side::total        80768                       # Cumulative packet size per connected master and slave (bytes)
system.membus.pkt_size::total                   80768                       # Cumulative packet size per connected master and slave (bytes)
system.membus.snoops                                0                       # Total snoops (count)
system.membus.snoopTraffic                          0                       # Total snoop traffic (bytes)
system.membus.snoop_fanout::samples              1262                       # Request fanout histogram
system.membus.snoop_fanout::mean                    0                       # Request fanout histogram
system.membus.snoop_fanout::stdev                   0                       # Request fanout histogram
system.membus.snoop_fanout::underflows              0      0.00%      0.00% # Request fanout histogram
system.membus.snoop_fanout::0                    1262    100.00%    100.00% # Request fanout histogram
system.membus.snoop_fanout::1                       0      0.00%    100.00% # Request fanout histogram
system.membus.snoop_fanout::overflows               0      0.00%    100.00% # Request fanout histogram
system.membus.snoop_fanout::min_value               0                       # Request fanout histogram
system.membus.snoop_fanout::max_value               0                       # Request fanout histogram
system.membus.snoop_fanout::total                1262                       # Request fanout histogram
system.membus.reqLayer0.occupancy              631000                       # Layer occupancy (ticks)
system.membus.reqLayer0.utilization               0.2                       # Layer utilization (%)
system.membus.respLayer0.occupancy            3418750                       # Layer occupancy (ticks)
system.membus.respLayer0.utilization              1.0                       # Layer utilization (%)

---------- End Simulation Statistics   ----------