
---------- Begin Simulation Statistics ----------
sim_seconds                                  0.052333                       # Number of seconds simulated
sim_ticks                                 52333001000                       # Number of ticks simulated
final_tick                                52333001000                       # Number of ticks from beginning of simulation (restored from checkpoints and never reset)
sim_freq                                 1000000000000                       # Frequency of simulated ticks
host_inst_rate                                 309343                       # Simulator instruction rate (inst/s)
host_op_rate                                   574540                       # Simulator op (including micro ops) rate (op/s)
host_tick_rate                              190184337                       # Simulator tick rate (ticks/s)
host_mem_usage                                 661792                       # Number of bytes of host memory used
host_seconds                                   275.17                       # Real time elapsed on the host
sim_insts                                    85121742                       # Number of instructions simulated
sim_ops                                     158095973                       # Number of ops (including micro ops) simulated
system.clk_domain.voltage_domain.voltage            1                       # Voltage in Volts
system.clk_domain.clock                           500                       # Clock period in ticks
system.mem_ctrl.pwrStateResidencyTicks::UNDEFINED  52333001000                       # Cumulative time (in ticks) in various power states
system.mem_ctrl.bytes_read::.cpu.inst           50688                       # Number of bytes read from this memory
system.mem_ctrl.bytes_read::.cpu.data         1706944                       # Number of bytes read from this memory
system.mem_ctrl.bytes_read::total             1757632                       # Number of bytes read from this memory
system.mem_ctrl.bytes_inst_read::.cpu.inst        50688                       # Number of instructions bytes read from this memory
system.mem_ctrl.bytes_inst_read::total          50688                       # Number of instructions bytes read from this memory
system.mem_ctrl.num_reads::.cpu.inst              792                       # Number of read requests responded to by this memory
system.mem_ctrl.num_reads::.cpu.data            26671                       # Number of read requests responded to by this memory
system.mem_ctrl.num_reads::total                27463                       # Number of read requests responded to by this memory
system.mem_ctrl.bw_read::.cpu.inst             968567                       # Total read bandwidth from this memory (bytes/s)
system.mem_ctrl.bw_read::.cpu.data           32616971                       # Total read bandwidth from this memory (bytes/s)
system.mem_ctrl.bw_read::total               33585538                       # Total read bandwidth from this memory (bytes/s)
system.mem_ctrl.bw_inst_read::.cpu.inst        968567                       # Instruction read bandwidth from this memory (bytes/s)
system.mem_ctrl.bw_inst_read::total            968567                       # Instruction read bandwidth from this memory (bytes/s)
system.mem_ctrl.bw_total::.cpu.inst            968567                       # Total bandwidth to/from this memory (bytes/s)
system.mem_ctrl.bw_total::.cpu.data          32616971                       # Total bandwidth to/from this memory (bytes/s)
system.mem_ctrl.bw_total::total              33585538                       # Total bandwidth to/from this memory (bytes/s)
system.mem_ctrl.avgPriority_.cpu.inst::samples       792.00                       # Average QoS priority value for accepted requests
system.mem_ctrl.avgPriority_.cpu.data::samples     26671.00                       # Average QoS priority value for accepted requests
system.mem_ctrl.priorityMinLatency       0.000000018750                       # per QoS priority minimum request to response latency (s)
system.mem_ctrl.priorityMaxLatency       0.000001099750                       # per QoS priority maximum request to response latency (s)
system.mem_ctrl.numReadWriteTurnArounds             0                       # Number of turnarounds from READ to WRITE
system.mem_ctrl.numWriteReadTurnArounds             0                       # Number of turnarounds from WRITE to READ
system.mem_ctrl.numStayReadState                60920                       # Number of times bus staying in READ state
system.mem_ctrl.numStayWriteState                   0                       # Number of times bus staying in WRITE state
system.mem_ctrl.readReqs                        27463                       # Number of read requests accepted
system.mem_ctrl.writeReqs                           0                       # Number of write requests accepted
system.mem_ctrl.readBursts                      27463                       # Number of DRAM read bursts, including those serviced by the write queue
system.mem_ctrl.writeBursts                         0                       # Number of DRAM write bursts, including those merged in the write queue
system.mem_ctrl.bytesReadDRAM                 1757632                       # Total number of bytes read from DRAM
system.mem_ctrl.bytesReadWrQ                        0                       # Total number of bytes read from write queue
system.mem_ctrl.bytesWritten                        0                       # Total number of bytes written to DRAM
system.mem_ctrl.bytesReadSys                  1757632                       # Total read bytes from the system interface side
system.mem_ctrl.bytesWrittenSys                     0                       # Total written bytes from the system interface side
system.mem_ctrl.servicedByWrQ                       0                       # Number of DRAM read bursts serviced by the write queue
system.mem_ctrl.mergedWrBursts                      0                       # Number of DRAM write bursts merged with an existing one
system.mem_ctrl.neitherReadNorWriteReqs             0                       # Number of requests that are neither read nor write
system.mem_ctrl.perBankRdBursts::0               1862                       # Per bank write bursts
system.mem_ctrl.perBankRdBursts::1               1675                       # Per bank write bursts
system.mem_ctrl.perBankRdBursts::2               1656                       # Per bank write bursts
system.mem_ctrl.perBankRdBursts::3               1678                       # Per bank write bursts
system.mem_ctrl.perBankRdBursts::4               1691                       # Per bank write bursts
system.mem_ctrl.perBankRdBursts::5               1678                       # Per bank write bursts
system.mem_ctrl.perBankRdBursts::6               1736                       # Per bank write bursts
system.mem_ctrl.perBankRdBursts::7               1763                       # Per bank write bursts
system.mem_ctrl.perBankRdBursts::8               1694                       # Per bank write bursts
system.mem_ctrl.perBankRdBursts::9               1590                       # Per bank write bursts
system.mem_ctrl.perBankRdBursts::10              1675                       # Per bank write bursts
system.mem_ctrl.perBankRdBursts::11              1652                       # Per bank write bursts
system.mem_ctrl.perBankRdBursts::12              1674                       # Per bank write bursts
system.mem_ctrl.perBankRdBursts::13              1816                       # Per bank write bursts
system.mem_ctrl.perBankRdBursts::14              1854                       # Per bank write bursts
system.mem_ctrl.perBankRdBursts::15              1769                       # Per bank write bursts
system.mem_ctrl.perBankWrBursts::0                  0                       # Per bank write bursts
system.mem_ctrl.perBankWrBursts::1                  0                       # Per bank write bursts
system.mem_ctrl.perBankWrBursts::2                  0                       # Per bank write bursts
system.mem_ctrl.perBankWrBursts::3                  0                       # Per bank write bursts
system.mem_ctrl.perBankWrBursts::4                  0                       # Per bank write bursts
system.mem_ctrl.perBankWrBursts::5                  0                       # Per bank write bursts
system.mem_ctrl.perBankWrBursts::6                  0                       # Per bank write bursts
system.mem_ctrl.perBankWrBursts::7                  0                       # Per bank write bursts
system.mem_ctrl.perBankWrBursts::8                  0                       # Per bank write bursts
system.mem_ctrl.perBankWrBursts::9                  0                       # Per bank write bursts
system.mem_ctrl.perBankWrBursts::10                 0                       # Per bank write bursts
system.mem_ctrl.perBankWrBursts::11                 0                       # Per bank write bursts
system.mem_ctrl.perBankWrBursts::12                 0                       # Per bank write bursts
system.mem_ctrl.perBankWrBursts::13                 0                       # Per bank write bursts
system.mem_ctrl.perBankWrBursts::14                 0                       # Per bank write bursts
system.mem_ctrl.perBankWrBursts::15                 0                       # Per bank write bursts
system.mem_ctrl.numRdRetry                          0                       # Number of times read queue was full causing retry
system.mem_ctrl.numWrRetry                          0                       # Number of times write queue was full causing retry
system.mem_ctrl.totGap                    52332917500                       # Total gap between requests
system.mem_ctrl.readPktSize::0                      0                       # Read request sizes (log2)
system.mem_ctrl.readPktSize::1                      0                       # Read request sizes (log2)
system.mem_ctrl.readPktSize::2                      0                       # Read request sizes (log2)
system.mem_ctrl.readPktSize::3                      0                       # Read request sizes (log2)
system.mem_ctrl.readPktSize::4                      0                       # Read request sizes (log2)
system.mem_ctrl.readPktSize::5                      0                       # Read request sizes (log2)
system.mem_ctrl.readPktSize::6                  27463                       # Read request sizes (log2)
system.mem_ctrl.writePktSize::0                     0                       # Write request sizes (log2)
system.mem_ctrl.writePktSize::1                     0                       # Write request sizes (log2)
system.mem_ctrl.writePktSize::2                     0                       # Write request sizes (log2)
system.mem_ctrl.writePktSize::3                     0                       # Write request sizes (log2)
system.mem_ctrl.writePktSize::4                     0                       # Write request sizes (log2)
system.mem_ctrl.writePktSize::5                     0                       # Write request sizes (log2)
system.mem_ctrl.writePktSize::6                     0                       # Write request sizes (log2)
system.mem_ctrl.rdQLenPdf::0                    27091                       # What read queue length does an incoming req see
system.mem_ctrl.rdQLenPdf::1                      305                       # What read queue length does an incoming req see
system.mem_ctrl.rdQLenPdf::2                       58                       # What read queue length does an incoming req see
system.mem_ctrl.rdQLenPdf::3                        7                       # What read queue length does an incoming req see
system.mem_ctrl.rdQLenPdf::4                        2                       # What read queue length does an incoming req see
system.mem_ctrl.rdQLenPdf::5                        0                       # What read queue length does an incoming req see
system.mem_ctrl.rdQLenPdf::6                        0                       # What read queue length does an incoming req see
system.mem_ctrl.rdQLenPdf::7                        0                       # What read queue length does an incoming req see
system.mem_ctrl.rdQLenPdf::8                        0                       # What read queue length does an incoming req see
system.mem_ctrl.rdQLenPdf::9                        0                       # What read queue length does an incoming req see
system.mem_ctrl.rdQLenPdf::10                       0                       # What read queue length does an incoming req see
system.mem_ctrl.rdQLenPdf::11                       0                       # What read queue length does an incoming req see
system.mem_ctrl.rdQLenPdf::12                       0                       # What read queue length does an incoming req see
system.mem_ctrl.rdQLenPdf::13                       0                       # What read queue length does an incoming req see
system.mem_ctrl.rdQLenPdf::14                       0                       # What read queue length does an incoming req see
system.mem_ctrl.rdQLenPdf::15                       0                       # What read queue length does an incoming req see
system.mem_ctrl.rdQLenPdf::16                       0                       # What read queue length does an incoming req see
system.mem_ctrl.rdQLenPdf::17                       0                       # What read queue length does an incoming req see
system.mem_ctrl.rdQLenPdf::18                       0                       # What read queue length does an incoming req see
system.mem_ctrl.rdQLenPdf::19                       0                       # What read queue length does an incoming req see
system.mem_ctrl.rdQLenPdf::20                       0                       # What read queue length does an incoming req see
system.mem_ctrl.rdQLenPdf::21                       0                       # What read queue length does an incoming req see
system.mem_ctrl.rdQLenPdf::22                       0                       # What read queue length does an incoming req see
system.mem_ctrl.rdQLenPdf::23                       0                       # What read queue length does an incoming req see
system.mem_ctrl.rdQLenPdf::24                       0                       # What read queue length does an incoming req see
system.mem_ctrl.rdQLenPdf::25                       0                       # What read queue length does an incoming req see
system.mem_ctrl.rdQLenPdf::26                       0                       # What read queue length does an incoming req see
system.mem_ctrl.rdQLenPdf::27                       0                       # What read queue length does an incoming req see
system.mem_ctrl.rdQLenPdf::28                       0                       # What read queue length does an incoming req see
system.mem_ctrl.rdQLenPdf::29                       0                       # What read queue length does an incoming req see
system.mem_ctrl.rdQLenPdf::30                       0                       # What read queue length does an incoming req see
system.mem_ctrl.rdQLenPdf::31                       0                       # What read queue length does an incoming req see
system.mem_ctrl.wrQLenPdf::0                        0                       # What write queue length does an incoming req see
system.mem_ctrl.wrQLenPdf::1                        0                       # What write queue length does an incoming req see
system.mem_ctrl.wrQLenPdf::2                        0                       # What write queue length does an incoming req see
system.mem_ctrl.wrQLenPdf::3                        0                       # What write queue length does an incoming req see
system.mem_ctrl.wrQLenPdf::4                        0                       # What write queue length does an incoming req see
system.mem_ctrl.wrQLenPdf::5                        0                       # What write queue length does an incoming req see
system.mem_ctrl.wrQLenPdf::6                        0                       # What write queue length does an incoming req see
system.mem_ctrl.wrQLenPdf::7                        0                       # What write queue length does an incoming req see
system.mem_ctrl.wrQLenPdf::8                        0                       # What write queue length does an incoming req see
system.mem_ctrl.wrQLenPdf::9                        0                       # What write queue length does an incoming req see
system.mem_ctrl.wrQLenPdf::10                       0                       # What write queue length does an incoming req see
system.mem_ctrl.wrQLenPdf::11                       0                       # What write queue length does an incoming req see
system.mem_ctrl.wrQLenPdf::12                       0                       # What write queue length does an incoming req see
system.mem_ctrl.wrQLenPdf::13                       0                       # What write queue length does an incoming req see
system.mem_ctrl.wrQLenPdf::14                       0                       # What write queue length does an incoming req see
system.mem_ctrl.wrQLenPdf::15                       0                       # What write queue length does an incoming req see
system.mem_ctrl.wrQLenPdf::16                       0                       # What write queue length does an incoming req see
system.mem_ctrl.wrQLenPdf::17                       0                       # What write queue length does an incoming req see
system.mem_ctrl.wrQLenPdf::18                       0                       # What write queue length does an incoming req see
system.mem_ctrl.wrQLenPdf::19                       0                       # What write queue length does an incoming req see
system.mem_ctrl.wrQLenPdf::20                       0                       # What write queue length does an incoming req see
system.mem_ctrl.wrQLenPdf::21                       0                       # What write queue length does an incoming req see
system.mem_ctrl.wrQLenPdf::22                       0                       # What write queue length does an incoming req see
system.mem_ctrl.wrQLenPdf::23                       0                       # What write queue length does an incoming req see
system.mem_ctrl.wrQLenPdf::24                       0                       # What write queue length does an incoming req see
system.mem_ctrl.wrQLenPdf::25                       0                       # What write queue length does an incoming req see
system.mem_ctrl.wrQLenPdf::26                       0                       # What write queue length does an incoming req see
system.mem_ctrl.wrQLenPdf::27                       0                       # What write queue length does an incoming req see
system.mem_ctrl.wrQLenPdf::28                       0                       # What write queue length does an incoming req see
system.mem_ctrl.wrQLenPdf::29                       0                       # What write queue length does an incoming req see
system.mem_ctrl.wrQLenPdf::30                       0                       # What write queue length does an incoming req see
system.mem_ctrl.wrQLenPdf::31                       0                       # What write queue length does an incoming req see
system.mem_ctrl.wrQLenPdf::32                       0                       # What write queue length does an incoming req see
system.mem_ctrl.wrQLenPdf::33                       0                       # What write queue length does an incoming req see
system.mem_ctrl.wrQLenPdf::34                       0                       # What write queue length does an incoming req see
system.mem_ctrl.wrQLenPdf::35                       0                       # What write queue length does an incoming req see
system.mem_ctrl.wrQLenPdf::36                       0                       # What write queue length does an incoming req see
system.mem_ctrl.wrQLenPdf::37                       0                       # What write queue length does an incoming req see
system.mem_ctrl.wrQLenPdf::38                       0                       # What write queue length does an incoming req see
system.mem_ctrl.wrQLenPdf::39                       0                       # What write queue length does an incoming req see
system.mem_ctrl.wrQLenPdf::40                       0                       # What write queue length does an incoming req see
system.mem_ctrl.wrQLenPdf::41                       0                       # What write queue length does an incoming req see
system.mem_ctrl.wrQLenPdf::42                       0                       # What write queue length does an incoming req see
system.mem_ctrl.wrQLenPdf::43                       0                       # What write queue length does an incoming req see
system.mem_ctrl.wrQLenPdf::44                       0                       # What write queue length does an incoming req see
system.mem_ctrl.wrQLenPdf::45                       0                       # What write queue length does an incoming req see
system.mem_ctrl.wrQLenPdf::46                       0                       # What write queue length does an incoming req see
system.mem_ctrl.wrQLenPdf::47                       0                       # What write queue length does an incoming req see
system.mem_ctrl.wrQLenPdf::48                       0                       # What write queue length does an incoming req see
system.mem_ctrl.wrQLenPdf::49                       0                       # What write queue length does an incoming req see
system.mem_ctrl.wrQLenPdf::50                       0                       # What write queue length does an incoming req see
system.mem_ctrl.wrQLenPdf::51                       0                       # What write queue length does an incoming req see
system.mem_ctrl.wrQLenPdf::52                       0                       # What write queue length does an incoming req see
system.mem_ctrl.wrQLenPdf::53                       0                       # What write queue length does an incoming req see
system.mem_ctrl.wrQLenPdf::54                       0                       # What write queue length does an incoming req see
system.mem_ctrl.wrQLenPdf::55                       0                       # What write queue length does an incoming req see
system.mem_ctrl.wrQLenPdf::56                       0                       # What write queue length does an incoming req see
system.mem_ctrl.wrQLenPdf::57                       0                       # What write queue length does an incoming req see
system.mem_ctrl.wrQLenPdf::58                       0                       # What write queue length does an incoming req see
system.mem_ctrl.wrQLenPdf::59                       0                       # What write queue length does an incoming req see
system.mem_ctrl.wrQLenPdf::60                       0                       # What write queue length does an incoming req see
system.mem_ctrl.wrQLenPdf::61                       0                       # What write queue length does an incoming req see
system.mem_ctrl.wrQLenPdf::62                       0                       # What write queue length does an incoming req see
system.mem_ctrl.wrQLenPdf::63                       0                       # What write queue length does an incoming req see
system.mem_ctrl.bytesPerActivate::samples         6486                       # Bytes accessed per row activation
system.mem_ctrl.bytesPerActivate::mean     270.672834                       # Bytes accessed per row activation
system.mem_ctrl.bytesPerActivate::gmean    253.320677                       # Bytes accessed per row activation
system.mem_ctrl.bytesPerActivate::stdev    102.844635                       # Bytes accessed per row activation
system.mem_ctrl.bytesPerActivate::0-127           330      5.09%      5.09% # Bytes accessed per row activation
system.mem_ctrl.bytesPerActivate::128-255          306      4.72%      9.81% # Bytes accessed per row activation
system.mem_ctrl.bytesPerActivate::256-383         5714     88.10%     97.90% # Bytes accessed per row activation
system.mem_ctrl.bytesPerActivate::384-511           29      0.45%     98.35% # Bytes accessed per row activation
system.mem_ctrl.bytesPerActivate::512-639           19      0.29%     98.64% # Bytes accessed per row activation
system.mem_ctrl.bytesPerActivate::640-767           10      0.15%     98.80% # Bytes accessed per row activation
system.mem_ctrl.bytesPerActivate::768-895            9      0.14%     98.94% # Bytes accessed per row activation
system.mem_ctrl.bytesPerActivate::896-1023            7      0.11%     99.04% # Bytes accessed per row activation
system.mem_ctrl.bytesPerActivate::1024-1151           62      0.96%    100.00% # Bytes accessed per row activation
system.mem_ctrl.bytesPerActivate::total          6486                       # Bytes accessed per row activation
system.mem_ctrl.masterReadBytes::.cpu.inst        50688                       # Per-master bytes read from memory
system.mem_ctrl.masterReadBytes::.cpu.data      1706944                       # Per-master bytes read from memory
system.mem_ctrl.masterReadRate::.cpu.inst 968566.660260893521                       # Per-master bytes read from memory rate (Bytes/sec)
system.mem_ctrl.masterReadRate::.cpu.data 32616971.459366530180                       # Per-master bytes read from memory rate (Bytes/sec)
system.mem_ctrl.masterReadAccesses::.cpu.inst          792                       # Per-master read serviced memory accesses
system.mem_ctrl.masterReadAccesses::.cpu.data        26671                       # Per-master read serviced memory accesses
system.mem_ctrl.masterReadTotalLat::.cpu.inst     35825750                       # Per-master read total memory access latency
system.mem_ctrl.masterReadTotalLat::.cpu.data    895276750                       # Per-master read total memory access latency
system.mem_ctrl.masterReadAvgLat::.cpu.inst     45234.53                       # Per-master read average memory access latency
system.mem_ctrl.masterReadAvgLat::.cpu.data     33567.42                       # Per-master read average memory access latency
system.mem_ctrl.totQLat                     416171250                       # Total ticks spent queuing
system.mem_ctrl.totMemAccLat                931102500                       # Total ticks spent from burst creation until serviced by the DRAM
system.mem_ctrl.totBusLat                   137315000                       # Total ticks spent in databus transfers
system.mem_ctrl.avgQLat                      15153.89                       # Average queueing delay per DRAM burst
system.mem_ctrl.avgBusLat                     5000.00                       # Average bus latency per DRAM burst
system.mem_ctrl.avgMemAccLat                 33903.89                       # Average memory access latency per DRAM burst
system.mem_ctrl.avgRdBW                         33.59                       # Average DRAM read bandwidth in MiByte/s
system.mem_ctrl.avgWrBW                          0.00                       # Average achieved write bandwidth in MiByte/s
system.mem_ctrl.avgRdBWSys                      33.59                       # Average system read bandwidth in MiByte/s
system.mem_ctrl.avgWrBWSys                       0.00                       # Average system write bandwidth in MiByte/s
system.mem_ctrl.peakBW                       12800.00                       # Theoretical peak bandwidth in MiByte/s
system.mem_ctrl.busUtil                          0.26                       # Data bus utilization in percentage
system.mem_ctrl.busUtilRead                      0.26                       # Data bus utilization in percentage for reads
system.mem_ctrl.busUtilWrite                     0.00                       # Data bus utilization in percentage for writes
system.mem_ctrl.avgRdQLen                        1.00                       # Average read queue length when enqueuing
system.mem_ctrl.avgWrQLen                        0.00                       # Average write queue length when enqueuing
system.mem_ctrl.readRowHits                     20968                       # Number of row buffer hits during reads
system.mem_ctrl.writeRowHits                        0                       # Number of row buffer hits during writes
system.mem_ctrl.readRowHitRate                  76.35                       # Row buffer hit rate for reads
system.mem_ctrl.writeRowHitRate                   nan                       # Row buffer hit rate for writes
system.mem_ctrl.avgGap                     1905579.05                       # Average gap between requests
system.mem_ctrl.pageHitRate                     76.35                       # Row buffer hit rate, read and write combined
system.mem_ctrl_0.actEnergy                  23383500                       # Energy for activate commands per rank (pJ)
system.mem_ctrl_0.preEnergy                  12405855                       # Energy for precharge commands per rank (pJ)
system.mem_ctrl_0.readEnergy                 98096460                       # Energy for read commands per rank (pJ)
system.mem_ctrl_0.writeEnergy                       0                       # Energy for write commands per rank (pJ)
system.mem_ctrl_0.refreshEnergy          1848222480.000000                       # Energy for refresh commands per rank (pJ)
system.mem_ctrl_0.actBackEnergy             512797080                       # Energy for active background per rank (pJ)
system.mem_ctrl_0.preBackEnergy              40372320                       # Energy for precharge background per rank (pJ)
system.mem_ctrl_0.actPowerDownEnergy       9239123160                       # Energy for active power-down per rank (pJ)
system.mem_ctrl_0.prePowerDownEnergy        741594240                       # Energy for precharge power-down per rank (pJ)
system.mem_ctrl_0.selfRefreshEnergy        6947989680                       # Energy for self refresh per rank (pJ)
system.mem_ctrl_0.totalEnergy             19464090945                       # Total energy per rank (pJ)
system.mem_ctrl_0.averagePower             371.927667                       # Core power per rank (mW)
system.mem_ctrl_0.totalIdleTime           51102912000                       # Total Idle time Per DRAM Rank
system.mem_ctrl_0.memoryStateTime::IDLE      22710500                       # Time in different power states
system.mem_ctrl_0.memoryStateTime::REF      781820000                       # Time in different power states
system.mem_ctrl_0.memoryStateTime::SREF   28910605250                       # Time in different power states
system.mem_ctrl_0.memoryStateTime::PRE_PDN   1931234500                       # Time in different power states
system.mem_ctrl_0.memoryStateTime::ACT      425518250                       # Time in different power states
system.mem_ctrl_0.memoryStateTime::ACT_PDN  20261112500                       # Time in different power states
system.mem_ctrl_1.actEnergy                  22990800                       # Energy for activate commands per rank (pJ)
system.mem_ctrl_1.preEnergy                  12208515                       # Energy for precharge commands per rank (pJ)
system.mem_ctrl_1.readEnergy                 97989360                       # Energy for read commands per rank (pJ)
system.mem_ctrl_1.writeEnergy                       0                       # Energy for write commands per rank (pJ)
system.mem_ctrl_1.refreshEnergy          1853139600.000000                       # Energy for refresh commands per rank (pJ)
system.mem_ctrl_1.actBackEnergy             513580260                       # Energy for active background per rank (pJ)
system.mem_ctrl_1.preBackEnergy              43757280                       # Energy for precharge background per rank (pJ)
system.mem_ctrl_1.actPowerDownEnergy       9125841360                       # Energy for active power-down per rank (pJ)
system.mem_ctrl_1.prePowerDownEnergy        860314560                       # Energy for precharge power-down per rank (pJ)
system.mem_ctrl_1.selfRefreshEnergy        6949107600                       # Energy for self refresh per rank (pJ)
system.mem_ctrl_1.totalEnergy             19479040635                       # Total energy per rank (pJ)
system.mem_ctrl_1.averagePower             372.213331                       # Core power per rank (mW)
system.mem_ctrl_1.totalIdleTime           51092615750                       # Total Idle time Per DRAM Rank
system.mem_ctrl_1.memoryStateTime::IDLE      31756500                       # Time in different power states
system.mem_ctrl_1.memoryStateTime::REF      783900000                       # Time in different power states
system.mem_ctrl_1.memoryStateTime::SREF   28839314750                       # Time in different power states
system.mem_ctrl_1.memoryStateTime::PRE_PDN   2240778500                       # Time in different power states
system.mem_ctrl_1.memoryStateTime::ACT      424456000                       # Time in different power states
system.mem_ctrl_1.memoryStateTime::ACT_PDN  20012795250                       # Time in different power states
system.pwrStateResidencyTicks::UNDEFINED  52333001000                       # Cumulative time (in ticks) in various power states
system.cpu.branchPred.lookups                21464037                       # Number of BP lookups
system.cpu.branchPred.condPredicted          21464037                       # Number of conditional branches predicted
system.cpu.branchPred.condIncorrect            376025                       # Number of conditional branches incorrect
system.cpu.branchPred.BTBLookups             18649611                       # Number of BTB lookups
system.cpu.branchPred.BTBHits                       0                       # Number of BTB hits
system.cpu.branchPred.BTBCorrect                    0                       # Number of correct BTB predictions (this stat may not work properly.
system.cpu.branchPred.BTBHitPct              0.000000                       # BTB Hit Percentage
system.cpu.branchPred.usedRAS                  701276                       # Number of times the RAS was used to get a target.
system.cpu.branchPred.RASInCorrect                749                       # Number of incorrect RAS predictions.
system.cpu.branchPred.indirectLookups        18649611                       # Number of indirect predictor lookups.
system.cpu.branchPred.indirectHits            8181913                       # Number of indirect target hits.
system.cpu.branchPred.indirectMisses         10467698                       # Number of indirect misses.
system.cpu.branchPredindirectMispredicted       307511                       # Number of mispredicted indirect branches.
system.cpu.dtb.walker.pwrStateResidencyTicks::UNDEFINED  52333001000                       # Cumulative time (in ticks) in various power states
system.cpu.dtb.rdAccesses                    18839057                       # TLB accesses on read requests
system.cpu.dtb.wrAccesses                    11897197                       # TLB accesses on write requests
system.cpu.dtb.rdMisses                        101799                       # TLB misses on read requests
system.cpu.dtb.wrMisses                           536                       # TLB misses on write requests
system.cpu.apic_clk_domain.clock                 8000                       # Clock period in ticks
system.cpu.interrupts.pwrStateResidencyTicks::UNDEFINED  52333001000                       # Cumulative time (in ticks) in various power states
system.cpu.itb.walker.pwrStateResidencyTicks::UNDEFINED  52333001000                       # Cumulative time (in ticks) in various power states
system.cpu.itb.rdAccesses                           0                       # TLB accesses on read requests
system.cpu.itb.wrAccesses                    13049210                       # TLB accesses on write requests
system.cpu.itb.rdMisses                             0                       # TLB misses on read requests
system.cpu.itb.wrMisses                           148                       # TLB misses on write requests
system.cpu.workload.numSyscalls                    86                       # Number of system calls
system.cpu.pwrStateResidencyTicks::ON     52333001000                       # Cumulative time (in ticks) in various power states
system.cpu.numCycles                        104666003                       # number of cpu cycles simulated
system.cpu.numWorkItemsStarted                      0                       # number of work items this cpu started
system.cpu.numWorkItemsCompleted                    0                       # number of work items this cpu completed
system.cpu.fetch.icacheStallCycles             395580                       # Number of cycles fetch is stalled on an Icache miss
system.cpu.fetch.Insts                       93117955                       # Number of instructions fetch has processed
system.cpu.fetch.Branches                    21464037                       # Number of branches that fetch encountered
system.cpu.fetch.predictedBranches            8883189                       # Number of branches that fetch has predicted taken
system.cpu.fetch.Cycles                     103849222                       # Number of cycles fetch has run and was not squashing or blocked
system.cpu.fetch.SquashCycles                  752864                       # Number of cycles fetch has spent squashing
system.cpu.fetch.MiscStallCycles                   66                       # Number of cycles fetch has spent waiting on interrupts, or bad addresses, or out of MSHRs
system.cpu.fetch.PendingTrapStallCycles           793                       # Number of stall cycles due to pending traps
system.cpu.fetch.PendingQuiesceStallCycles           18                       # Number of stall cycles due to pending quiesce instructions
system.cpu.fetch.CacheLines                  13049121                       # Number of cache lines fetched
system.cpu.fetch.IcacheSquashes                   483                       # Number of outstanding Icache misses that were squashed
system.cpu.fetch.rateDist::samples          104622111                       # Number of instructions fetched each cycle (Total)
system.cpu.fetch.rateDist::mean              1.648847                       # Number of instructions fetched each cycle (Total)
system.cpu.fetch.rateDist::stdev             0.710827                       # Number of instructions fetched each cycle (Total)
system.cpu.fetch.rateDist::underflows               0      0.00%      0.00% # Number of instructions fetched each cycle (Total)
system.cpu.fetch.rateDist::0                 14512669     13.87%     13.87% # Number of instructions fetched each cycle (Total)
system.cpu.fetch.rateDist::1                  7713007      7.37%     21.24% # Number of instructions fetched each cycle (Total)
system.cpu.fetch.rateDist::2                 82396435     78.76%    100.00% # Number of instructions fetched each cycle (Total)
system.cpu.fetch.rateDist::overflows                0      0.00%    100.00% # Number of instructions fetched each cycle (Total)
system.cpu.fetch.rateDist::min_value                0                       # Number of instructions fetched each cycle (Total)
system.cpu.fetch.rateDist::max_value                2                       # Number of instructions fetched each cycle (Total)
system.cpu.fetch.rateDist::total            104622111                       # Number of instructions fetched each cycle (Total)
system.cpu.fetch.branchRate                  0.205072                       # Number of branch fetches per cycle
system.cpu.fetch.rate                        0.889668                       # Number of inst fetches per cycle
system.cpu.decode.IdleCycles                  3333596                       # Number of cycles decode is idle
system.cpu.decode.BlockedCycles              12935964                       # Number of cycles decode is blocked
system.cpu.decode.RunCycles                  85977621                       # Number of cycles decode is running
system.cpu.decode.UnblockCycles               1998498                       # Number of cycles decode is unblocking
system.cpu.decode.SquashCycles                 376432                       # Number of cycles decode is squashing
system.cpu.decode.DecodedInsts              168509735                       # Number of instructions handled by decode
system.cpu.decode.SquashedInsts               1371428                       # Number of squashed instructions handled by decode
system.cpu.rename.SquashCycles                 376432                       # Number of cycles rename is squashing
system.cpu.rename.IdleCycles                  5480985                       # Number of cycles rename is idle
system.cpu.rename.BlockCycles                 7318427                       # Number of cycles rename is blocking
system.cpu.rename.serializeStallCycles           4960                       # count of cycles rename stalled for serializing inst
system.cpu.rename.RunCycles                  85684181                       # Number of cycles rename is running
system.cpu.rename.UnblockCycles               5757126                       # Number of cycles rename is unblocking
system.cpu.rename.RenamedInsts              167045017                       # Number of instructions processed by rename
system.cpu.rename.SquashedInsts                733383                       # Number of squashed instructions processed by rename
system.cpu.rename.ROBFullEvents                   166                       # Number of times rename has blocked due to ROB full
system.cpu.rename.IQFullEvents                 496793                       # Number of times rename has blocked due to IQ full
system.cpu.rename.LQFullEvents                  67925                       # Number of times rename has blocked due to LQ full
system.cpu.rename.SQFullEvents                4115968                       # Number of times rename has blocked due to SQ full
system.cpu.rename.FullRegisterEvents           125069                       # Number of times there has been no free registers
system.cpu.rename.RenamedOperands           187680824                       # Number of destination operands rename has renamed
system.cpu.rename.RenameLookups             425894564                       # Number of register rename lookups that rename has made
system.cpu.rename.int_rename_lookups        245513703                       # Number of integer rename lookups
system.cpu.rename.fp_rename_lookups            304392                       # Number of floating rename lookups
system.cpu.rename.CommittedMaps             177569425                       # Number of HB maps that are committed
system.cpu.rename.UndoneMaps                 10111399                       # Number of HB maps that are undone due to squashing
system.cpu.rename.serializingInsts                101                       # count of serializing insts renamed
system.cpu.rename.tempSerializingInsts             99                       # count of temporary serializing insts renamed
system.cpu.rename.skidInsts                   3031560                       # count of insts added to the skid buffer
system.cpu.memDep0.insertedLoads             19307499                       # Number of loads inserted to the mem dependence unit.
system.cpu.memDep0.insertedStores            12140030                       # Number of stores inserted to the mem dependence unit.
system.cpu.memDep0.conflictingLoads           1065197                       # Number of conflicting loads.
system.cpu.memDep0.conflictingStores           452691                       # Number of conflicting stores.
system.cpu.iq.iqInstsAdded                  165566091                       # Number of instructions added to the IQ (excludes non-spec)
system.cpu.iq.iqNonSpecInstsAdded               18228                       # Number of non-speculative instructions added to the IQ
system.cpu.iq.iqInstsIssued                 162921775                       # Number of instructions issued
system.cpu.iq.iqSquashedInstsIssued            586144                       # Number of squashed instructions issued
system.cpu.iq.iqSquashedInstsExamined         7488345                       # Number of squashed instructions iterated over during squash; mainly for profiling
system.cpu.iq.iqSquashedOperandsExamined      9796418                       # Number of squashed operands that are examined and possibly removed from graph
system.cpu.iq.iqSquashedNonSpecRemoved          18142                       # Number of squashed non-spec instructions that were removed
system.cpu.iq.issued_per_cycle::samples     104622111                       # Number of insts issued each cycle
system.cpu.iq.issued_per_cycle::mean         1.557240                       # Number of insts issued each cycle
system.cpu.iq.issued_per_cycle::stdev        0.752487                       # Number of insts issued each cycle
system.cpu.iq.issued_per_cycle::underflows            0      0.00%      0.00% # Number of insts issued each cycle
system.cpu.iq.issued_per_cycle::0            16714079     15.98%     15.98% # Number of insts issued each cycle
system.cpu.iq.issued_per_cycle::1            12894289     12.32%     28.30% # Number of insts issued each cycle
system.cpu.iq.issued_per_cycle::2            75013743     71.70%    100.00% # Number of insts issued each cycle
system.cpu.iq.issued_per_cycle::overflows            0      0.00%    100.00% # Number of insts issued each cycle
system.cpu.iq.issued_per_cycle::min_value            0                       # Number of insts issued each cycle
system.cpu.iq.issued_per_cycle::max_value            2                       # Number of insts issued each cycle
system.cpu.iq.issued_per_cycle::total       104622111                       # Number of insts issued each cycle
system.cpu.iq.fu_full::No_OpClass                   0      0.00%      0.00% # attempts to use FU when none available
system.cpu.iq.fu_full::IntAlu                       0      0.00%      0.00% # attempts to use FU when none available
system.cpu.iq.fu_full::IntMult                      0      0.00%      0.00% # attempts to use FU when none available
system.cpu.iq.fu_full::IntDiv                       0      0.00%      0.00% # attempts to use FU when none available
system.cpu.iq.fu_full::FloatAdd                     0      0.00%      0.00% # attempts to use FU when none available
system.cpu.iq.fu_full::FloatCmp                     0      0.00%      0.00% # attempts to use FU when none available
system.cpu.iq.fu_full::FloatCvt                     0      0.00%      0.00% # attempts to use FU when none available
system.cpu.iq.fu_full::FloatMult                    0      0.00%      0.00% # attempts to use FU when none available
system.cpu.iq.fu_full::FloatMultAcc                 0      0.00%      0.00% # attempts to use FU when none available
system.cpu.iq.fu_full::FloatDiv                     0      0.00%      0.00% # attempts to use FU when none available
system.cpu.iq.fu_full::FloatMisc                    0      0.00%      0.00% # attempts to use FU when none available
system.cpu.iq.fu_full::FloatSqrt                    0      0.00%      0.00% # attempts to use FU when none available
system.cpu.iq.fu_full::SimdAdd                    247      0.01%      0.01% # attempts to use FU when none available
system.cpu.iq.fu_full::SimdAddAcc                   0      0.00%      0.01% # attempts to use FU when none available
system.cpu.iq.fu_full::SimdAlu                     68      0.00%      0.01% # attempts to use FU when none available
system.cpu.iq.fu_full::SimdCmp                      0      0.00%      0.01% # attempts to use FU when none available
system.cpu.iq.fu_full::SimdCvt                     43      0.00%      0.01% # attempts to use FU when none available
system.cpu.iq.fu_full::SimdMisc                   152      0.00%      0.01% # attempts to use FU when none available
system.cpu.iq.fu_full::SimdMult                     0      0.00%      0.01% # attempts to use FU when none available
system.cpu.iq.fu_full::SimdMultAcc                  0      0.00%      0.01% # attempts to use FU when none available
system.cpu.iq.fu_full::SimdShift                  120      0.00%      0.01% # attempts to use FU when none available
system.cpu.iq.fu_full::SimdShiftAcc                 0      0.00%      0.01% # attempts to use FU when none available
system.cpu.iq.fu_full::SimdSqrt                     0      0.00%      0.01% # attempts to use FU when none available
system.cpu.iq.fu_full::SimdFloatAdd                 0      0.00%      0.01% # attempts to use FU when none available
system.cpu.iq.fu_full::SimdFloatAlu                 0      0.00%      0.01% # attempts to use FU when none available
system.cpu.iq.fu_full::SimdFloatCmp                 0      0.00%      0.01% # attempts to use FU when none available
system.cpu.iq.fu_full::SimdFloatCvt                 0      0.00%      0.01% # attempts to use FU when none available
system.cpu.iq.fu_full::SimdFloatDiv                 0      0.00%      0.01% # attempts to use FU when none available
system.cpu.iq.fu_full::SimdFloatMisc                0      0.00%      0.01% # attempts to use FU when none available
system.cpu.iq.fu_full::SimdFloatMult                0      0.00%      0.01% # attempts to use FU when none available
system.cpu.iq.fu_full::SimdFloatMultAcc             0      0.00%      0.01% # attempts to use FU when none available
system.cpu.iq.fu_full::SimdFloatSqrt                0      0.00%      0.01% # attempts to use FU when none available
system.cpu.iq.fu_full::SimdAes                      0      0.00%      0.01% # attempts to use FU when none available
system.cpu.iq.fu_full::SimdAesMix                   0      0.00%      0.01% # attempts to use FU when none available
system.cpu.iq.fu_full::SimdSha1Hash                 0      0.00%      0.01% # attempts to use FU when none available
system.cpu.iq.fu_full::SimdSha1Hash2                0      0.00%      0.01% # attempts to use FU when none available
system.cpu.iq.fu_full::SimdSha256Hash               0      0.00%      0.01% # attempts to use FU when none available
system.cpu.iq.fu_full::SimdSha256Hash2              0      0.00%      0.01% # attempts to use FU when none available
system.cpu.iq.fu_full::SimdShaSigma2                0      0.00%      0.01% # attempts to use FU when none available
system.cpu.iq.fu_full::SimdShaSigma3                0      0.00%      0.01% # attempts to use FU when none available
system.cpu.iq.fu_full::MemRead                3143210     74.34%     74.35% # attempts to use FU when none available
system.cpu.iq.fu_full::MemWrite               1084314     25.65%    100.00% # attempts to use FU when none available
system.cpu.iq.fu_full::FloatMemRead                 0      0.00%    100.00% # attempts to use FU when none available
system.cpu.iq.fu_full::FloatMemWrite                0      0.00%    100.00% # attempts to use FU when none available
system.cpu.iq.fu_full::IprAccess                    0      0.00%    100.00% # attempts to use FU when none available
system.cpu.iq.fu_full::InstPrefetch                 0      0.00%    100.00% # attempts to use FU when none available
system.cpu.iq.FU_type_0::No_OpClass            264383      0.16%      0.16% # Type of FU issued
system.cpu.iq.FU_type_0::IntAlu             131248803     80.56%     80.72% # Type of FU issued
system.cpu.iq.FU_type_0::IntMult               395091      0.24%     80.96% # Type of FU issued
system.cpu.iq.FU_type_0::IntDiv                    30      0.00%     80.96% # Type of FU issued
system.cpu.iq.FU_type_0::FloatAdd              100016      0.06%     81.03% # Type of FU issued
system.cpu.iq.FU_type_0::FloatCmp                   0      0.00%     81.03% # Type of FU issued
system.cpu.iq.FU_type_0::FloatCvt                   0      0.00%     81.03% # Type of FU issued
system.cpu.iq.FU_type_0::FloatMult                  0      0.00%     81.03% # Type of FU issued
system.cpu.iq.FU_type_0::FloatMultAcc               0      0.00%     81.03% # Type of FU issued
system.cpu.iq.FU_type_0::FloatDiv                   0      0.00%     81.03% # Type of FU issued
system.cpu.iq.FU_type_0::FloatMisc                  0      0.00%     81.03% # Type of FU issued
system.cpu.iq.FU_type_0::FloatSqrt                  0      0.00%     81.03% # Type of FU issued
system.cpu.iq.FU_type_0::SimdAdd                  375      0.00%     81.03% # Type of FU issued
system.cpu.iq.FU_type_0::SimdAddAcc                 0      0.00%     81.03% # Type of FU issued
system.cpu.iq.FU_type_0::SimdAlu                  106      0.00%     81.03% # Type of FU issued
system.cpu.iq.FU_type_0::SimdCmp                    6      0.00%     81.03% # Type of FU issued
system.cpu.iq.FU_type_0::SimdCvt                  151      0.00%     81.03% # Type of FU issued
system.cpu.iq.FU_type_0::SimdMisc                 262      0.00%     81.03% # Type of FU issued
system.cpu.iq.FU_type_0::SimdMult                   0      0.00%     81.03% # Type of FU issued
system.cpu.iq.FU_type_0::SimdMultAcc                0      0.00%     81.03% # Type of FU issued
system.cpu.iq.FU_type_0::SimdShift                186      0.00%     81.03% # Type of FU issued
system.cpu.iq.FU_type_0::SimdShiftAcc               0      0.00%     81.03% # Type of FU issued
system.cpu.iq.FU_type_0::SimdSqrt                   0      0.00%     81.03% # Type of FU issued
system.cpu.iq.FU_type_0::SimdFloatAdd               0      0.00%     81.03% # Type of FU issued
system.cpu.iq.FU_type_0::SimdFloatAlu               0      0.00%     81.03% # Type of FU issued
system.cpu.iq.FU_type_0::SimdFloatCmp               0      0.00%     81.03% # Type of FU issued
system.cpu.iq.FU_type_0::SimdFloatCvt               0      0.00%     81.03% # Type of FU issued
system.cpu.iq.FU_type_0::SimdFloatDiv               0      0.00%     81.03% # Type of FU issued
system.cpu.iq.FU_type_0::SimdFloatMisc              0      0.00%     81.03% # Type of FU issued
system.cpu.iq.FU_type_0::SimdFloatMult              0      0.00%     81.03% # Type of FU issued
system.cpu.iq.FU_type_0::SimdFloatMultAcc            0      0.00%     81.03% # Type of FU issued
system.cpu.iq.FU_type_0::SimdFloatSqrt              0      0.00%     81.03% # Type of FU issued
system.cpu.iq.FU_type_0::SimdAes                    0      0.00%     81.03% # Type of FU issued
system.cpu.iq.FU_type_0::SimdAesMix                 0      0.00%     81.03% # Type of FU issued
system.cpu.iq.FU_type_0::SimdSha1Hash               0      0.00%     81.03% # Type of FU issued
system.cpu.iq.FU_type_0::SimdSha1Hash2              0      0.00%     81.03% # Type of FU issued
system.cpu.iq.FU_type_0::SimdSha256Hash             0      0.00%     81.03% # Type of FU issued
system.cpu.iq.FU_type_0::SimdSha256Hash2            0      0.00%     81.03% # Type of FU issued
system.cpu.iq.FU_type_0::SimdShaSigma2              0      0.00%     81.03% # Type of FU issued
system.cpu.iq.FU_type_0::SimdShaSigma3              0      0.00%     81.03% # Type of FU issued
system.cpu.iq.FU_type_0::MemRead             18614491     11.43%     92.45% # Type of FU issued
system.cpu.iq.FU_type_0::MemWrite            11697115      7.18%     99.63% # Type of FU issued
system.cpu.iq.FU_type_0::FloatMemRead          300190      0.18%     99.82% # Type of FU issued
system.cpu.iq.FU_type_0::FloatMemWrite         300570      0.18%    100.00% # Type of FU issued
system.cpu.iq.FU_type_0::IprAccess                  0      0.00%    100.00% # Type of FU issued
system.cpu.iq.FU_type_0::InstPrefetch               0      0.00%    100.00% # Type of FU issued
system.cpu.iq.FU_type_0::total              162921775                       # Type of FU issued
system.cpu.iq.rate                           1.556587                       # Inst issue rate
system.cpu.iq.fu_busy_cnt                     4228154                       # FU busy when requested
system.cpu.iq.fu_busy_rate                   0.025952                       # FU busy rate (busy events/executed inst)
system.cpu.iq.int_inst_queue_reads          433874545                       # Number of integer instruction queue reads
system.cpu.iq.int_inst_queue_writes         172370256                       # Number of integer instruction queue writes
system.cpu.iq.int_inst_queue_wakeup_accesses    160492263                       # Number of integer instruction queue wakeup accesses
system.cpu.iq.fp_inst_queue_reads             1405414                       # Number of floating instruction queue reads
system.cpu.iq.fp_inst_queue_writes             702768                       # Number of floating instruction queue writes
system.cpu.iq.fp_inst_queue_wakeup_accesses       702326                       # Number of floating instruction queue wakeup accesses
system.cpu.iq.vec_inst_queue_reads                  0                       # Number of vector instruction queue reads
system.cpu.iq.vec_inst_queue_writes                 0                       # Number of vector instruction queue writes
system.cpu.iq.vec_inst_queue_wakeup_accesses            0                       # Number of vector instruction queue wakeup accesses
system.cpu.iq.int_alu_accesses              166182527                       # Number of integer alu accesses
system.cpu.iq.fp_alu_accesses                  703019                       # Number of floating point alu accesses
system.cpu.iq.vec_alu_accesses                      0                       # Number of vector alu accesses
system.cpu.iew.lsq.thread0.forwLoads          1340622                       # Number of loads that had data forwarded from stores
system.cpu.iew.lsq.thread0.invAddrLoads             0                       # Number of loads ignored due to an invalid address
system.cpu.iew.lsq.thread0.squashedLoads       820885                       # Number of loads squashed
system.cpu.iew.lsq.thread0.ignoredResponses          350                       # Number of memory responses ignored because the instruction is squashed
system.cpu.iew.lsq.thread0.memOrderViolation          360                       # Number of memory ordering violations
system.cpu.iew.lsq.thread0.squashedStores       542989                       # Number of stores squashed
system.cpu.iew.lsq.thread0.invAddrSwpfs             0                       # Number of software prefetches ignored due to an invalid address
system.cpu.iew.lsq.thread0.blockedLoads             0                       # Number of blocked loads due to partial load-store forwarding
system.cpu.iew.lsq.thread0.rescheduledLoads            2                       # Number of loads that were rescheduled
system.cpu.iew.lsq.thread0.cacheBlocked           167                       # Number of times an access to memory failed due to the cache being blocked
system.cpu.iew.iewIdleCycles                        0                       # Number of cycles IEW is idle
system.cpu.iew.iewSquashCycles                 376432                       # Number of cycles IEW is squashing
system.cpu.iew.iewBlockCycles                 4053518                       # Number of cycles IEW is blocking
system.cpu.iew.iewUnblockCycles                119280                       # Number of cycles IEW is unblocking
system.cpu.iew.iewDispatchedInsts           165584319                       # Number of instructions dispatched to IQ
system.cpu.iew.iewDispSquashedInsts            374507                       # Number of squashed instructions skipped by dispatch
system.cpu.iew.iewDispLoadInsts              19307499                       # Number of dispatched load instructions
system.cpu.iew.iewDispStoreInsts             12140030                       # Number of dispatched store instructions
system.cpu.iew.iewDispNonSpecInsts               6138                       # Number of dispatched non-speculative instructions
system.cpu.iew.iewIQFullEvents                  49805                       # Number of times the IQ has become full, causing a stall
system.cpu.iew.iewLSQFullEvents                  2914                       # Number of times the LSQ has become full, causing a stall
system.cpu.iew.memOrderViolationEvents            360                       # Number of memory order violations
system.cpu.iew.predictedTakenIncorrect          45873                       # Number of branches that were predicted taken incorrectly
system.cpu.iew.predictedNotTakenIncorrect       348702                       # Number of branches that were predicted not taken incorrectly
system.cpu.iew.branchMispredicts               394575                       # Number of branch mispredicts detected at execute
system.cpu.iew.iewExecutedInsts             161575483                       # Number of executed instructions
system.cpu.iew.iewExecLoadInsts              18839015                       # Number of load instructions executed
system.cpu.iew.iewExecSquashedInsts           1346292                       # Number of squashed instructions skipped in execute
system.cpu.iew.exec_swp                             0                       # number of swp insts executed
system.cpu.iew.exec_nop                             0                       # number of nop insts executed
system.cpu.iew.exec_refs                     30736212                       # number of memory reference insts executed
system.cpu.iew.exec_branches                 19821574                       # Number of branches executed
system.cpu.iew.exec_stores                   11897197                       # Number of stores executed
system.cpu.iew.exec_rate                     1.543725                       # Inst execution rate
system.cpu.iew.wb_sent                      161408420                       # cumulative count of insts sent to commit
system.cpu.iew.wb_count                     161194589                       # cumulative count of insts written-back
system.cpu.iew.wb_producers                 116559517                       # num instructions producing a value
system.cpu.iew.wb_consumers                 179698084                       # num instructions consuming a value
system.cpu.iew.wb_rate                       1.540085                       # insts written-back per cycle
system.cpu.iew.wb_fanout                     0.648641                       # average fanout of values written-back
system.cpu.commit.commitSquashedInsts         6820729                       # The number of squashed insts skipped by commit
system.cpu.commit.commitNonSpecStalls              86                       # The number of times commit has been forced to stall to communicate backwards
system.cpu.commit.branchMispredicts            376085                       # The number of times a branch was mispredicted
system.cpu.commit.committed_per_cycle::samples    104042334                       # Number of insts commited each cycle
system.cpu.commit.committed_per_cycle::mean     1.519535                       # Number of insts commited each cycle
system.cpu.commit.committed_per_cycle::stdev     0.800662                       # Number of insts commited each cycle
system.cpu.commit.committed_per_cycle::underflows            0      0.00%      0.00% # Number of insts commited each cycle
system.cpu.commit.committed_per_cycle::0     20363221     19.57%     19.57% # Number of insts commited each cycle
system.cpu.commit.committed_per_cycle::1      9262253      8.90%     28.47% # Number of insts commited each cycle
system.cpu.commit.committed_per_cycle::2     74416860     71.53%    100.00% # Number of insts commited each cycle
system.cpu.commit.committed_per_cycle::overflows            0      0.00%    100.00% # Number of insts commited each cycle
system.cpu.commit.committed_per_cycle::min_value            0                       # Number of insts commited each cycle
system.cpu.commit.committed_per_cycle::max_value            2                       # Number of insts commited each cycle
system.cpu.commit.committed_per_cycle::total    104042334                       # Number of insts commited each cycle
system.cpu.commit.committedInsts             85121742                       # Number of instructions committed
system.cpu.commit.committedOps              158095973                       # Number of ops (including micro ops) committed
system.cpu.commit.swp_count                         0                       # Number of s/w prefetches committed
system.cpu.commit.refs                       30083655                       # Number of memory references committed
system.cpu.commit.loads                      18486614                       # Number of loads committed
system.cpu.commit.membars                           0                       # Number of memory barriers committed
system.cpu.commit.branches                   19756630                       # Number of branches committed
system.cpu.commit.vec_insts                         0                       # Number of committed Vector instructions.
system.cpu.commit.fp_insts                     702138                       # Number of committed floating point instructions.
system.cpu.commit.int_insts                 157789319                       # Number of committed integer instructions.
system.cpu.commit.function_calls               665498                       # Number of function calls committed.
system.cpu.commit.op_class_0::No_OpClass       100115      0.06%      0.06% # Class of committed instruction
system.cpu.commit.op_class_0::IntAlu        127433462     80.61%     80.67% # Class of committed instruction
system.cpu.commit.op_class_0::IntMult          377627      0.24%     80.91% # Class of committed instruction
system.cpu.commit.op_class_0::IntDiv               28      0.00%     80.91% # Class of committed instruction
system.cpu.commit.op_class_0::FloatAdd         100015      0.06%     80.97% # Class of committed instruction
system.cpu.commit.op_class_0::FloatCmp              0      0.00%     80.97% # Class of committed instruction
system.cpu.commit.op_class_0::FloatCvt              0      0.00%     80.97% # Class of committed instruction
system.cpu.commit.op_class_0::FloatMult             0      0.00%     80.97% # Class of committed instruction
system.cpu.commit.op_class_0::FloatMultAcc            0      0.00%     80.97% # Class of committed instruction
system.cpu.commit.op_class_0::FloatDiv              0      0.00%     80.97% # Class of committed instruction
system.cpu.commit.op_class_0::FloatMisc             0      0.00%     80.97% # Class of committed instruction
system.cpu.commit.op_class_0::FloatSqrt             0      0.00%     80.97% # Class of committed instruction
system.cpu.commit.op_class_0::SimdAdd             374      0.00%     80.97% # Class of committed instruction
system.cpu.commit.op_class_0::SimdAddAcc            0      0.00%     80.97% # Class of committed instruction
system.cpu.commit.op_class_0::SimdAlu             102      0.00%     80.97% # Class of committed instruction
system.cpu.commit.op_class_0::SimdCmp               6      0.00%     80.97% # Class of committed instruction
system.cpu.commit.op_class_0::SimdCvt             144      0.00%     80.97% # Class of committed instruction
system.cpu.commit.op_class_0::SimdMisc            259      0.00%     80.97% # Class of committed instruction
system.cpu.commit.op_class_0::SimdMult              0      0.00%     80.97% # Class of committed instruction
system.cpu.commit.op_class_0::SimdMultAcc            0      0.00%     80.97% # Class of committed instruction
system.cpu.commit.op_class_0::SimdShift           186      0.00%     80.97% # Class of committed instruction
system.cpu.commit.op_class_0::SimdShiftAcc            0      0.00%     80.97% # Class of committed instruction
system.cpu.commit.op_class_0::SimdSqrt              0      0.00%     80.97% # Class of committed instruction
system.cpu.commit.op_class_0::SimdFloatAdd            0      0.00%     80.97% # Class of committed instruction
system.cpu.commit.op_class_0::SimdFloatAlu            0      0.00%     80.97% # Class of committed instruction
system.cpu.commit.op_class_0::SimdFloatCmp            0      0.00%     80.97% # Class of committed instruction
system.cpu.commit.op_class_0::SimdFloatCvt            0      0.00%     80.97% # Class of committed instruction
system.cpu.commit.op_class_0::SimdFloatDiv            0      0.00%     80.97% # Class of committed instruction
system.cpu.commit.op_class_0::SimdFloatMisc            0      0.00%     80.97% # Class of committed instruction
system.cpu.commit.op_class_0::SimdFloatMult            0      0.00%     80.97% # Class of committed instruction
system.cpu.commit.op_class_0::SimdFloatMultAcc            0      0.00%     80.97% # Class of committed instruction
system.cpu.commit.op_class_0::SimdFloatSqrt            0      0.00%     80.97% # Class of committed instruction
system.cpu.commit.op_class_0::SimdAes               0      0.00%     80.97% # Class of committed instruction
system.cpu.commit.op_class_0::SimdAesMix            0      0.00%     80.97% # Class of committed instruction
system.cpu.commit.op_class_0::SimdSha1Hash            0      0.00%     80.97% # Class of committed instruction
system.cpu.commit.op_class_0::SimdSha1Hash2            0      0.00%     80.97% # Class of committed instruction
system.cpu.commit.op_class_0::SimdSha256Hash            0      0.00%     80.97% # Class of committed instruction
system.cpu.commit.op_class_0::SimdSha256Hash2            0      0.00%     80.97% # Class of committed instruction
system.cpu.commit.op_class_0::SimdShaSigma2            0      0.00%     80.97% # Class of committed instruction
system.cpu.commit.op_class_0::SimdShaSigma3            0      0.00%     80.97% # Class of committed instruction
system.cpu.commit.op_class_0::MemRead        18186510     11.50%     92.47% # Class of committed instruction
system.cpu.commit.op_class_0::MemWrite       11296614      7.15%     99.62% # Class of committed instruction
system.cpu.commit.op_class_0::FloatMemRead       300104      0.19%     99.81% # Class of committed instruction
system.cpu.commit.op_class_0::FloatMemWrite       300427      0.19%    100.00% # Class of committed instruction
system.cpu.commit.op_class_0::IprAccess             0      0.00%    100.00% # Class of committed instruction
system.cpu.commit.op_class_0::InstPrefetch            0      0.00%    100.00% # Class of committed instruction
system.cpu.commit.op_class_0::total         158095973                       # Class of committed instruction
system.cpu.commit.bw_lim_events              74416860                       # number cycles where commit BW limit reached
system.cpu.rob.rob_reads                    194542176                       # The number of ROB reads
system.cpu.rob.rob_writes                   330413191                       # The number of ROB writes
system.cpu.timesIdled                             469                       # Number of times that the entire CPU went into an idle state and unscheduled itself
system.cpu.idleCycles                           43892                       # Total number of cycles that the CPU has spent unscheduled due to idling
system.cpu.committedInsts                    85121742                       # Number of Instructions Simulated
system.cpu.committedOps                     158095973                       # Number of Ops (including micro ops) Simulated
system.cpu.cpi                               1.229604                       # CPI: Cycles Per Instruction
system.cpu.cpi_total                         1.229604                       # CPI: Total CPI of All Threads
system.cpu.ipc                               0.813270                       # IPC: Instructions Per Cycle
system.cpu.ipc_total                         0.813270                       # IPC: Total IPC of All Threads
system.cpu.int_regfile_reads                237116535                       # number of integer regfile reads
system.cpu.int_regfile_writes               129283086                       # number of integer regfile writes
system.cpu.fp_regfile_reads                    304217                       # number of floating regfile reads
system.cpu.fp_regfile_writes                   401704                       # number of floating regfile writes
system.cpu.cc_regfile_reads                 101353242                       # number of cc regfile reads
system.cpu.cc_regfile_writes                 51395356                       # number of cc regfile writes
system.cpu.misc_regfile_reads                71699066                       # number of misc regfile reads
system.cpu.dcache.tags.pwrStateResidencyTicks::UNDEFINED  52333001000                       # Cumulative time (in ticks) in various power states
system.cpu.dcache.tags.tagsinuse           127.976422                       # Cycle average of tags in use
system.cpu.dcache.tags.total_refs            29082059                       # Total number of references to valid blocks.
system.cpu.dcache.tags.sampled_refs            253034                       # Sample count of references to valid blocks.
system.cpu.dcache.tags.avg_refs            114.933404                       # Average number of references to valid blocks.
system.cpu.dcache.tags.warmup_cycle            170000                       # Cycle when the warmup percentage was hit.
system.cpu.dcache.tags.occ_blocks::.cpu.data   127.976422                       # Average occupied blocks per requestor
system.cpu.dcache.tags.occ_percent::.cpu.data     0.999816                       # Average percentage of cache occupancy
system.cpu.dcache.tags.occ_percent::total     0.999816                       # Average percentage of cache occupancy
system.cpu.dcache.tags.occ_task_id_blocks::1024          128                       # Occupied blocks per task id
system.cpu.dcache.tags.age_task_id_blocks_1024::0           99                       # Occupied blocks per task id
system.cpu.dcache.tags.age_task_id_blocks_1024::1           16                       # Occupied blocks per task id
system.cpu.dcache.tags.age_task_id_blocks_1024::3           11                       # Occupied blocks per task id
system.cpu.dcache.tags.age_task_id_blocks_1024::4            2                       # Occupied blocks per task id
system.cpu.dcache.tags.occ_task_id_percent::1024            1                       # Percentage of cache occupancy per task id
system.cpu.dcache.tags.tag_accesses         232923498                       # Number of tag accesses
system.cpu.dcache.tags.data_accesses        232923498                       # Number of data accesses
system.cpu.dcache.pwrStateResidencyTicks::UNDEFINED  52333001000                       # Cumulative time (in ticks) in various power states
system.cpu.dcache.ReadReq_hits::.cpu.data     17258566                       # number of ReadReq hits
system.cpu.dcache.ReadReq_hits::total        17258566                       # number of ReadReq hits
system.cpu.dcache.WriteReq_hits::.cpu.data     11525593                       # number of WriteReq hits
system.cpu.dcache.WriteReq_hits::total       11525593                       # number of WriteReq hits
system.cpu.dcache.demand_hits::.cpu.data     28784159                       # number of demand (read+write) hits
system.cpu.dcache.demand_hits::total         28784159                       # number of demand (read+write) hits
system.cpu.dcache.overall_hits::.cpu.data     28784159                       # number of overall hits
system.cpu.dcache.overall_hits::total        28784159                       # number of overall hits
system.cpu.dcache.ReadReq_misses::.cpu.data       228201                       # number of ReadReq misses
system.cpu.dcache.ReadReq_misses::total        228201                       # number of ReadReq misses
system.cpu.dcache.WriteReq_misses::.cpu.data        71448                       # number of WriteReq misses
system.cpu.dcache.WriteReq_misses::total        71448                       # number of WriteReq misses
system.cpu.dcache.demand_misses::.cpu.data       299649                       # number of demand (read+write) misses
system.cpu.dcache.demand_misses::total         299649                       # number of demand (read+write) misses
system.cpu.dcache.overall_misses::.cpu.data       299649                       # number of overall misses
system.cpu.dcache.overall_misses::total        299649                       # number of overall misses
system.cpu.dcache.ReadReq_miss_latency::.cpu.data   5599735000                       # number of ReadReq miss cycles
system.cpu.dcache.ReadReq_miss_latency::total   5599735000                       # number of ReadReq miss cycles
system.cpu.dcache.WriteReq_miss_latency::.cpu.data   2470635000                       # number of WriteReq miss cycles
system.cpu.dcache.WriteReq_miss_latency::total   2470635000                       # number of WriteReq miss cycles
system.cpu.dcache.demand_miss_latency::.cpu.data   8070370000                       # number of demand (read+write) miss cycles
system.cpu.dcache.demand_miss_latency::total   8070370000                       # number of demand (read+write) miss cycles
system.cpu.dcache.overall_miss_latency::.cpu.data   8070370000                       # number of overall miss cycles
system.cpu.dcache.overall_miss_latency::total   8070370000                       # number of overall miss cycles
system.cpu.dcache.ReadReq_accesses::.cpu.data     17486767                       # number of ReadReq accesses(hits+misses)
system.cpu.dcache.ReadReq_accesses::total     17486767                       # number of ReadReq accesses(hits+misses)
system.cpu.dcache.WriteReq_accesses::.cpu.data     11597041                       # number of WriteReq accesses(hits+misses)
system.cpu.dcache.WriteReq_accesses::total     11597041                       # number of WriteReq accesses(hits+misses)
system.cpu.dcache.demand_accesses::.cpu.data     29083808                       # number of demand (read+write) accesses
system.cpu.dcache.demand_accesses::total     29083808                       # number of demand (read+write) accesses
system.cpu.dcache.overall_accesses::.cpu.data     29083808                       # number of overall (read+write) accesses
system.cpu.dcache.overall_accesses::total     29083808                       # number of overall (read+write) accesses
system.cpu.dcache.ReadReq_miss_rate::.cpu.data     0.013050                       # miss rate for ReadReq accesses
system.cpu.dcache.ReadReq_miss_rate::total     0.013050                       # miss rate for ReadReq accesses
system.cpu.dcache.WriteReq_miss_rate::.cpu.data     0.006161                       # miss rate for WriteReq accesses
system.cpu.dcache.WriteReq_miss_rate::total     0.006161                       # miss rate for WriteReq accesses
system.cpu.dcache.demand_miss_rate::.cpu.data     0.010303                       # miss rate for demand accesses
system.cpu.dcache.demand_miss_rate::total     0.010303                       # miss rate for demand accesses
system.cpu.dcache.overall_miss_rate::.cpu.data     0.010303                       # miss rate for overall accesses
system.cpu.dcache.overall_miss_rate::total     0.010303                       # miss rate for overall accesses
system.cpu.dcache.ReadReq_avg_miss_latency::.cpu.data 24538.608507                       # average ReadReq miss latency
system.cpu.dcache.ReadReq_avg_miss_latency::total 24538.608507                       # average ReadReq miss latency
system.cpu.dcache.WriteReq_avg_miss_latency::.cpu.data 34579.484380                       # average WriteReq miss latency
system.cpu.dcache.WriteReq_avg_miss_latency::total 34579.484380                       # average WriteReq miss latency
system.cpu.dcache.demand_avg_miss_latency::.cpu.data 26932.744645                       # average overall miss latency
[...]
system.l3cache.tags.occ_blocks::.cpu.data 15562.671350                       # Average occupied blocks per requestor
system.l3cache.tags.occ_percent::.cpu.inst     0.020620                       # Average percentage of cache occupancy
system.l3cache.tags.occ_percent::.cpu.data     0.474935                       # Average percentage of cache occupancy
system.l3cache.tags.occ_percent::total       0.495555                       # Average percentage of cache occupancy
system.l3cache.tags.occ_task_id_blocks::1024        27463                       # Occupied blocks per task id
system.l3cache.tags.age_task_id_blocks_1024::0           60                       # Occupied blocks per task id
system.l3cache.tags.age_task_id_blocks_1024::3         1939                       # Occupied blocks per task id
system.l3cache.tags.age_task_id_blocks_1024::4        25464                       # Occupied blocks per task id
system.l3cache.tags.occ_task_id_percent::1024     0.838104                       # Percentage of cache occupancy per task id
system.l3cache.tags.tag_accesses              4571991                       # Number of tag accesses
system.l3cache.tags.data_accesses             4571991                       # Number of data accesses
system.l3cache.pwrStateResidencyTicks::UNDEFINED  52333001000                       # Cumulative time (in ticks) in various power states
system.l3cache.WritebackDirty_hits::.writebacks       139462                       # number of WritebackDirty hits
system.l3cache.WritebackDirty_hits::total       139462                       # number of WritebackDirty hits
system.l3cache.ReadExReq_hits::.cpu.data            6                       # number of ReadExReq hits
system.l3cache.ReadExReq_hits::total                6                       # number of ReadExReq hits
system.l3cache.ReadSharedReq_hits::.cpu.inst           11                       # number of ReadSharedReq hits
system.l3cache.ReadSharedReq_hits::.cpu.data       117091                       # number of ReadSharedReq hits
system.l3cache.ReadSharedReq_hits::total       117102                       # number of ReadSharedReq hits
system.l3cache.demand_hits::.cpu.inst              11                       # number of demand (read+write) hits
system.l3cache.demand_hits::.cpu.data          117097                       # number of demand (read+write) hits
system.l3cache.demand_hits::total              117108                       # number of demand (read+write) hits
system.l3cache.overall_hits::.cpu.inst             11                       # number of overall hits
system.l3cache.overall_hits::.cpu.data         117097                       # number of overall hits
system.l3cache.overall_hits::total             117108                       # number of overall hits
system.l3cache.ReadExReq_misses::.cpu.data        26391                       # number of ReadExReq misses
system.l3cache.ReadExReq_misses::total          26391                       # number of ReadExReq misses
system.l3cache.ReadSharedReq_misses::.cpu.inst          792                       # number of ReadSharedReq misses
system.l3cache.ReadSharedReq_misses::.cpu.data          280                       # number of ReadSharedReq misses
system.l3cache.ReadSharedReq_misses::total         1072                       # number of ReadSharedReq misses
system.l3cache.demand_misses::.cpu.inst           792                       # number of demand (read+write) misses
system.l3cache.demand_misses::.cpu.data         26671                       # number of demand (read+write) misses
system.l3cache.demand_misses::total             27463                       # number of demand (read+write) misses
system.l3cache.overall_misses::.cpu.inst          792                       # number of overall misses
system.l3cache.overall_misses::.cpu.data        26671                       # number of overall misses
system.l3cache.overall_misses::total            27463                       # number of overall misses
system.l3cache.ReadExReq_miss_latency::.cpu.data   1862359000                       # number of ReadExReq miss cycles
system.l3cache.ReadExReq_miss_latency::total   1862359000                       # number of ReadExReq miss cycles
system.l3cache.ReadSharedReq_miss_latency::.cpu.inst     65302500                       # number of ReadSharedReq miss cycles
system.l3cache.ReadSharedReq_miss_latency::.cpu.data     25033000                       # number of ReadSharedReq miss cycles
system.l3cache.ReadSharedReq_miss_latency::total     90335500                       # number of ReadSharedReq miss cycles
system.l3cache.demand_miss_latency::.cpu.inst     65302500                       # number of demand (read+write) miss cycles
system.l3cache.demand_miss_latency::.cpu.data   1887392000                       # number of demand (read+write) miss cycles
system.l3cache.demand_miss_latency::total   1952694500                       # number of demand (read+write) miss cycles
system.l3cache.overall_miss_latency::.cpu.inst     65302500                       # number of overall miss cycles
system.l3cache.overall_miss_latency::.cpu.data   1887392000                       # number of overall miss cycles
system.l3cache.overall_miss_latency::total   1952694500                       # number of overall miss cycles
system.l3cache.WritebackDirty_accesses::.writebacks       139462                       # number of WritebackDirty accesses(hits+misses)
system.l3cache.WritebackDirty_accesses::total       139462                       # number of WritebackDirty accesses(hits+misses)
system.l3cache.ReadExReq_accesses::.cpu.data        26397                       # number of ReadExReq accesses(hits+misses)
system.l3cache.ReadExReq_accesses::total        26397                       # number of ReadExReq accesses(hits+misses)
system.l3cache.ReadSharedReq_accesses::.cpu.inst          803                       # number of ReadSharedReq accesses(hits+misses)
system.l3cache.ReadSharedReq_accesses::.cpu.data       117371                       # number of ReadSharedReq accesses(hits+misses)
system.l3cache.ReadSharedReq_accesses::total       118174                       # number of ReadSharedReq accesses(hits+misses)
system.l3cache.demand_accesses::.cpu.inst          803                       # number of demand (read+write) accesses
system.l3cache.demand_accesses::.cpu.data       143768                       # number of demand (read+write) accesses
system.l3cache.demand_accesses::total          144571                       # number of demand (read+write) accesses
system.l3cache.overall_accesses::.cpu.inst          803                       # number of overall (read+write) accesses
system.l3cache.overall_accesses::.cpu.data       143768                       # number of overall (read+write) accesses
system.l3cache.overall_accesses::total         144571                       # number of overall (read+write) accesses
system.l3cache.ReadExReq_miss_rate::.cpu.data     0.999773                       # miss rate for ReadExReq accesses
system.l3cache.ReadExReq_miss_rate::total     0.999773                       # miss rate for ReadExReq accesses
system.l3cache.ReadSharedReq_miss_rate::.cpu.inst     0.986301                       # miss rate for ReadSharedReq accesses
system.l3cache.ReadSharedReq_miss_rate::.cpu.data     0.002386                       # miss rate for ReadSharedReq accesses
system.l3cache.ReadSharedReq_miss_rate::total     0.009071                       # miss rate for ReadSharedReq accesses
system.l3cache.demand_miss_rate::.cpu.inst     0.986301                       # miss rate for demand accesses
system.l3cache.demand_miss_rate::.cpu.data     0.185514                       # miss rate for demand accesses
system.l3cache.demand_miss_rate::total       0.189962                       # miss rate for demand accesses
system.l3cache.overall_miss_rate::.cpu.inst     0.986301                       # miss rate for overall accesses
system.l3cache.overall_miss_rate::.cpu.data     0.185514                       # miss rate for overall accesses
system.l3cache.overall_miss_rate::total      0.189962                       # miss rate for overall accesses
system.l3cache.ReadExReq_avg_miss_latency::.cpu.data 70567.958774                       # average ReadExReq miss latency
system.l3cache.ReadExReq_avg_miss_latency::total 70567.958774                       # average ReadExReq miss latency
system.l3cache.ReadSharedReq_avg_miss_latency::.cpu.inst 82452.651515                       # average ReadSharedReq miss latency
system.l3cache.ReadSharedReq_avg_miss_latency::.cpu.data 89403.571429                       # average ReadSharedReq miss latency
system.l3cache.ReadSharedReq_avg_miss_latency::total 84268.190299                       # average ReadSharedReq miss latency
system.l3cache.demand_avg_miss_latency::.cpu.inst 82452.651515                       # average overall miss latency
system.l3cache.demand_avg_miss_latency::.cpu.data 70765.700574                       # average overall miss latency
system.l3cache.demand_avg_miss_latency::total 71102.738230                       # average overall miss latency
system.l3cache.overall_avg_miss_latency::.cpu.inst 82452.651515                       # average overall miss latency
system.l3cache.overall_avg_miss_latency::.cpu.data 70765.700574                       # average overall miss latency
system.l3cache.overall_avg_miss_latency::total 71102.738230                       # average overall miss latency
system.l3cache.blocked_cycles::no_mshrs             0                       # number of cycles access was blocked
system.l3cache.blocked_cycles::no_targets            0                       # number of cycles access was blocked
system.l3cache.blocked::no_mshrs                    0                       # number of cycles access was blocked
system.l3cache.blocked::no_targets                  0                       # number of cycles access was blocked
system.l3cache.avg_blocked_cycles::no_mshrs          nan                       # average number of cycles each access was blocked
system.l3cache.avg_blocked_cycles::no_targets          nan                       # average number of cycles each access was blocked
system.l3cache.ReadExReq_mshr_misses::.cpu.data        26391                       # number of ReadExReq MSHR misses
system.l3cache.ReadExReq_mshr_misses::total        26391                       # number of ReadExReq MSHR misses
system.l3cache.ReadSharedReq_mshr_misses::.cpu.inst          792                       # number of ReadSharedReq MSHR misses
system.l3cache.ReadSharedReq_mshr_misses::.cpu.data          280                       # number of ReadSharedReq MSHR misses
system.l3cache.ReadSharedReq_mshr_misses::total         1072                       # number of ReadSharedReq MSHR misses
system.l3cache.demand_mshr_misses::.cpu.inst          792                       # number of demand (read+write) MSHR misses
system.l3cache.demand_mshr_misses::.cpu.data        26671                       # number of demand (read+write) MSHR misses
system.l3cache.demand_mshr_misses::total        27463                       # number of demand (read+write) MSHR misses
system.l3cache.overall_mshr_misses::.cpu.inst          792                       # number of overall MSHR misses
system.l3cache.overall_mshr_misses::.cpu.data        26671                       # number of overall MSHR misses
system.l3cache.overall_mshr_misses::total        27463                       # number of overall MSHR misses
system.l3cache.ReadExReq_mshr_miss_latency::.cpu.data   1809577000                       # number of ReadExReq MSHR miss cycles
system.l3cache.ReadExReq_mshr_miss_latency::total   1809577000                       # number of ReadExReq MSHR miss cycles
system.l3cache.ReadSharedReq_mshr_miss_latency::.cpu.inst     63718500                       # number of ReadSharedReq MSHR miss cycles
system.l3cache.ReadSharedReq_mshr_miss_latency::.cpu.data     24473000                       # number of ReadSharedReq MSHR miss cycles
system.l3cache.ReadSharedReq_mshr_miss_latency::total     88191500                       # number of ReadSharedReq MSHR miss cycles
system.l3cache.demand_mshr_miss_latency::.cpu.inst     63718500                       # number of demand (read+write) MSHR miss cycles
system.l3cache.demand_mshr_miss_latency::.cpu.data   1834050000                       # number of demand (read+write) MSHR miss cycles
system.l3cache.demand_mshr_miss_latency::total   1897768500                       # number of demand (read+write) MSHR miss cycles
system.l3cache.overall_mshr_miss_latency::.cpu.inst     63718500                       # number of overall MSHR miss cycles
system.l3cache.overall_mshr_miss_latency::.cpu.data   1834050000                       # number of overall MSHR miss cycles
system.l3cache.overall_mshr_miss_latency::total   1897768500                       # number of overall MSHR miss cycles
system.l3cache.ReadExReq_mshr_miss_rate::.cpu.data     0.999773                       # mshr miss rate for ReadExReq accesses
system.l3cache.ReadExReq_mshr_miss_rate::total     0.999773                       # mshr miss rate for ReadExReq accesses
system.l3cache.ReadSharedReq_mshr_miss_rate::.cpu.inst     0.986301                       # mshr miss rate for ReadSharedReq accesses
system.l3cache.ReadSharedReq_mshr_miss_rate::.cpu.data     0.002386                       # mshr miss rate for ReadSharedReq accesses
system.l3cache.ReadSharedReq_mshr_miss_rate::total     0.009071                       # mshr miss rate for ReadSharedReq accesses
system.l3cache.demand_mshr_miss_rate::.cpu.inst     0.986301                       # mshr miss rate for demand accesses
system.l3cache.demand_mshr_miss_rate::.cpu.data     0.185514                       # mshr miss rate for demand accesses
system.l3cache.demand_mshr_miss_rate::total     0.189962                       # mshr miss rate for demand accesses
system.l3cache.overall_mshr_miss_rate::.cpu.inst     0.986301                       # mshr miss rate for overall accesses
system.l3cache.overall_mshr_miss_rate::.cpu.data     0.185514                       # mshr miss rate for overall accesses
system.l3cache.overall_mshr_miss_rate::total     0.189962                       # mshr miss rate for overall accesses
system.l3cache.ReadExReq_avg_mshr_miss_latency::.cpu.data 68567.958774                       # average ReadExReq mshr miss latency
system.l3cache.ReadExReq_avg_mshr_miss_latency::total 68567.958774                       # average ReadExReq mshr miss latency
system.l3cache.ReadSharedReq_avg_mshr_miss_latency::.cpu.inst 80452.651515                       # average ReadSharedReq mshr miss latency
system.l3cache.ReadSharedReq_avg_mshr_miss_latency::.cpu.data 87403.571429                       # average ReadSharedReq mshr miss latency
system.l3cache.ReadSharedReq_avg_mshr_miss_latency::total 82268.190299                       # average ReadSharedReq mshr miss latency
system.l3cache.demand_avg_mshr_miss_latency::.cpu.inst 80452.651515                       # average overall mshr miss latency
system.l3cache.demand_avg_mshr_miss_latency::.cpu.data 68765.700574                       # average overall mshr miss latency
system.l3cache.demand_avg_mshr_miss_latency::total 69102.738230                       # average overall mshr miss latency
system.l3cache.overall_avg_mshr_miss_latency::.cpu.inst 80452.651515                       # average overall mshr miss latency
system.l3cache.overall_avg_mshr_miss_latency::.cpu.data 68765.700574                       # average overall mshr miss latency
system.l3cache.overall_avg_mshr_miss_latency::total 69102.738230                       # average overall mshr miss latency
system.l3cache.replacements                         0                       # number of replacements
system.membus.snoop_filter.tot_requests         27463                       # Total number of requests made to the snoop filter.
system.membus.snoop_filter.hit_single_requests            0                       # Number of requests hitting in the snoop filter with a single holder of the requested data.
system.membus.snoop_filter.hit_multi_requests            0                       # Number of requests hitting in the snoop filter with multiple (>1) holders of the requested data.
system.membus.snoop_filter.tot_snoops               0                       # Total number of snoops made to the snoop filter.
system.membus.snoop_filter.hit_single_snoops            0                       # Number of snoops hitting in the snoop filter with a single holder of the requested data.
system.membus.snoop_filter.hit_multi_snoops            0                       # Number of snoops hitting in the snoop filter with multiple (>1) holders of the requested data.
system.membus.pwrStateResidencyTicks::UNDEFINED  52333001000                       # Cumulative time (in ticks) in various power states
system.membus.trans_dist::ReadResp               1072                       # Transaction distribution
system.membus.trans_dist::ReadExReq             26391                       # Transaction distribution
system.membus.trans_dist::ReadExResp            26391                       # Transaction distribution
system.membus.trans_dist::ReadSharedReq          1072                       # Transaction distribution
system.membus.pkt_count_system.l3cache.mem_side::system.mem_ctrl.port        54926                       # Packet count per connected master and slave (bytes)
system.membus.pkt_count_system.l3cache.mem_side::total        54926                       # Packet count per connected master and slave (bytes)
system.membus.pkt_count::total                  54926                       # Packet count per connected master and slave (bytes)
system.membus.pkt_size_system.l3cache.mem_side::system.mem_ctrl.port      1757632                       # Cumulative packet size per connected master and slave (bytes)
system.membus.pkt_size_system.l3cache.mem_side::total      1757632                       # Cumulative packet size per connected master and slave (bytes)
system.membus.pkt_size::total                 1757632                       # Cumulative packet size per connected master and slave (bytes)
system.membus.snoops                                0                       # Total snoops (count)
system.membus.snoopTraffic                          0                       # Total snoop traffic (bytes)
system.membus.snoop_fanout::samples             27463                       # Request fanout histogram
system.membus.snoop_fanout::mean                    0                       # Request fanout histogram
system.membus.snoop_fanout::stdev                   0                       # Request fanout histogram
system.membus.snoop_fanout::underflows              0      0.00%      0.00% # Request fanout histogram
system.membus.snoop_fanout::0                   27463    100.00%    100.00% # Request fanout histogram
system.membus.snoop_fanout::1                       0      0.00%    100.00% # Request fanout histogram
system.membus.snoop_fanout::overflows               0      0.00%    100.00% # Request fanout histogram
system.membus.snoop_fanout::min_value               0                       # Request fanout histogram
system.membus.snoop_fanout::max_value               0                       # Request fanout histogram
system.membus.snoop_fanout::total               27463                       # Request fanout histogram
system.membus.reqLayer0.occupancy            13731500                       # Layer occupancy (ticks)
system.membus.reqLayer0.utilization               0.0                       # Layer utilization (%)
system.membus.respLayer0.occupancy           74118500                       # Layer occupancy (ticks)
system.membus.respLayer0.utilization              0.1                       # Layer utilization (%)

---------- End Simulation Statistics   ----------