
---------- Begin Simulation Statistics ----------
sim_seconds                                  0.000045                       # Number of seconds simulated
sim_ticks                                    44547000                       # Number of ticks simulated
final_tick                                   44547000                       # Number of ticks from beginning of simulation (restored from checkpoints and never reset)
sim_freq                                 1000000000000                       # Frequency of simulated ticks
host_inst_rate                                  34425                       # Simulator instruction rate (inst/s)
host_op_rate                                    69475                       # Simulator op (including micro ops) rate (op/s)
host_tick_rate                              198093377                       # Simulator tick rate (ticks/s)
host_mem_usage                                 655940                       # Number of bytes of host memory used
host_seconds                                     0.22                       # Real time elapsed on the host
sim_insts                                        7741                       # Number of instructions simulated
sim_ops                                         15623                       # Number of ops (including micro ops) simulated
system.clk_domain.voltage_domain.voltage            1                       # Voltage in Volts
system.clk_domain.clock                           500                       # Clock period in ticks
system.mem_ctrl.pwrStateResidencyTicks::UNDEFINED     44547000                       # Cumulative time (in ticks) in various power states
system.mem_ctrl.bytes_read::.cpu.inst           35520                       # Number of bytes read from this memory
system.mem_ctrl.bytes_read::.cpu.data           16576                       # Number of bytes read from this memory
system.mem_ctrl.bytes_read::total               52096                       # Number of bytes read from this memory
system.mem_ctrl.bytes_inst_read::.cpu.inst        35520                       # Number of instructions bytes read from this memory
system.mem_ctrl.bytes_inst_read::total          35520                       # Number of instructions bytes read from this memory
system.mem_ctrl.num_reads::.cpu.inst              555                       # Number of read requests responded to by this memory
system.mem_ctrl.num_reads::.cpu.data              259                       # Number of read requests responded to by this memory
system.mem_ctrl.num_reads::total                  814                       # Number of read requests responded to by this memory
system.mem_ctrl.bw_read::.cpu.inst          797360092                       # Total read bandwidth from this memory (bytes/s)
system.mem_ctrl.bw_read::.cpu.data          372101376                       # Total read bandwidth from this memory (bytes/s)
system.mem_ctrl.bw_read::total             1169461468                       # Total read bandwidth from this memory (bytes/s)
system.mem_ctrl.bw_inst_read::.cpu.inst     797360092                       # Instruction read bandwidth from this memory (bytes/s)
system.mem_ctrl.bw_inst_read::total         797360092                       # Instruction read bandwidth from this memory (bytes/s)
system.mem_ctrl.bw_total::.cpu.inst         797360092                       # Total bandwidth to/from this memory (bytes/s)
system.mem_ctrl.bw_total::.cpu.data         372101376                       # Total bandwidth to/from this memory (bytes/s)
system.mem_ctrl.bw_total::total            1169461468                       # Total bandwidth to/from this memory (bytes/s)
system.mem_ctrl.avgPriority_.cpu.inst::samples       555.00                       # Average QoS priority value for accepted requests
system.mem_ctrl.avgPriority_.cpu.data::samples       259.00                       # Average QoS priority value for accepted requests
system.mem_ctrl.priorityMinLatency       0.000000018750                       # per QoS priority minimum request to response latency (s)
system.mem_ctrl.priorityMaxLatency       0.000000592250                       # per QoS priority maximum request to response latency (s)
system.mem_ctrl.numReadWriteTurnArounds             0                       # Number of turnarounds from READ to WRITE
system.mem_ctrl.numWriteReadTurnArounds             0                       # Number of turnarounds from WRITE to READ
system.mem_ctrl.numStayReadState                 1606                       # Number of times bus staying in READ state
system.mem_ctrl.numStayWriteState                   0                       # Number of times bus staying in WRITE state
system.mem_ctrl.readReqs                          814                       # Number of read requests accepted
system.mem_ctrl.writeReqs                           0                       # Number of write requests accepted
system.mem_ctrl.readBursts                        814                       # Number of DRAM read bursts, including those serviced by the write queue
system.mem_ctrl.writeBursts                         0                       # Number of DRAM write bursts, including those merged in the write queue
system.mem_ctrl.bytesReadDRAM                   52096                       # Total number of bytes read from DRAM
system.mem_ctrl.bytesReadWrQ                        0                       # Total number of bytes read from write queue
system.mem_ctrl.bytesWritten                        0                       # Total number of bytes written to DRAM
system.mem_ctrl.bytesReadSys                    52096                       # Total read bytes from the system interface side
system.mem_ctrl.bytesWrittenSys                     0                       # Total written bytes from the system interface side
system.mem_ctrl.servicedByWrQ                       0                       # Number of DRAM read bursts serviced by the write queue
system.mem_ctrl.mergedWrBursts                      0                       # Number of DRAM write bursts merged with an existing one
system.mem_ctrl.neitherReadNorWriteReqs             0                       # Number of requests that are neither read nor write
system.mem_ctrl.perBankRdBursts::0                150                       # Per bank write bursts
system.mem_ctrl.perBankRdBursts::1                 35                       # Per bank write bursts
system.mem_ctrl.perBankRdBursts::2                 37                       # Per bank write bursts
system.mem_ctrl.perBankRdBursts::3                 15                       # Per bank write bursts
system.mem_ctrl.perBankRdBursts::4                 27                       # Per bank write bursts
system.mem_ctrl.perBankRdBursts::5                 13                       # Per bank write bursts
system.mem_ctrl.perBankRdBursts::6                 76                       # Per bank write bursts
system.mem_ctrl.perBankRdBursts::7                 31                       # Per bank write bursts
system.mem_ctrl.perBankRdBursts::8                  2                       # Per bank write bursts
system.mem_ctrl.perBankRdBursts::9                 10                       # Per bank write bursts
system.mem_ctrl.perBankRdBursts::10               116                       # Per bank write bursts
system.mem_ctrl.perBankRdBursts::11                68                       # Per bank write bursts
system.mem_ctrl.perBankRdBursts::12                11                       # Per bank write bursts
system.mem_ctrl.perBankRdBursts::13                27                       # Per bank write bursts
system.mem_ctrl.perBankRdBursts::14                99                       # Per bank write bursts
system.mem_ctrl.perBankRdBursts::15                97                       # Per bank write bursts
system.mem_ctrl.perBankWrBursts::0                  0                       # Per bank write bursts
system.mem_ctrl.perBankWrBursts::1                  0                       # Per bank write bursts
system.mem_ctrl.perBankWrBursts::2                  0                       # Per bank write bursts
system.mem_ctrl.perBankWrBursts::3                  0                       # Per bank write bursts
system.mem_ctrl.perBankWrBursts::4                  0                       # Per bank write bursts
system.mem_ctrl.perBankWrBursts::5                  0                       # Per bank write bursts
system.mem_ctrl.perBankWrBursts::6                  0                       # Per bank write bursts
system.mem_ctrl.perBankWrBursts::7                  0                       # Per bank write bursts
system.mem_ctrl.perBankWrBursts::8                  0                       # Per bank write bursts
system.mem_ctrl.perBankWrBursts::9                  0                       # Per bank write bursts
system.mem_ctrl.perBankWrBursts::10                 0                       # Per bank write bursts
system.mem_ctrl.perBankWrBursts::11                 0                       # Per bank write bursts
system.mem_ctrl.perBankWrBursts::12                 0                       # Per bank write bursts
system.mem_ctrl.perBankWrBursts::13                 0                       # Per bank write bursts
system.mem_ctrl.perBankWrBursts::14                 0                       # Per bank write bursts
system.mem_ctrl.perBankWrBursts::15                 0                       # Per bank write bursts
system.mem_ctrl.numRdRetry                          0                       # Number of times read queue was full causing retry
system.mem_ctrl.numWrRetry                          0                       # Number of times write queue was full causing retry
system.mem_ctrl.totGap                       44455500                       # Total gap between requests
system.mem_ctrl.readPktSize::0                      0                       # Read request sizes (log2)
system.mem_ctrl.readPktSize::1                      0                       # Read request sizes (log2)
system.mem_ctrl.readPktSize::2                      0                       # Read request sizes (log2)
system.mem_ctrl.readPktSize::3                      0                       # Read request sizes (log2)
system.mem_ctrl.readPktSize::4                      0                       # Read request sizes (log2)
system.mem_ctrl.readPktSize::5                      0                       # Read request sizes (log2)
system.mem_ctrl.readPktSize::6                    814                       # Read request sizes (log2)
system.mem_ctrl.writePktSize::0                     0                       # Write request sizes (log2)
system.mem_ctrl.writePktSize::1                     0                       # Write request sizes (log2)
system.mem_ctrl.writePktSize::2                     0                       # Write request sizes (log2)
system.mem_ctrl.writePktSize::3                     0                       # Write request sizes (log2)
system.mem_ctrl.writePktSize::4                     0                       # Write request sizes (log2)
system.mem_ctrl.writePktSize::5                     0                       # Write request sizes (log2)
system.mem_ctrl.writePktSize::6                     0                       # Write request sizes (log2)
system.mem_ctrl.rdQLenPdf::0                      485                       # What read queue length does an incoming req see
system.mem_ctrl.rdQLenPdf::1                      236                       # What read queue length does an incoming req see
system.mem_ctrl.rdQLenPdf::2                       74                       # What read queue length does an incoming req see
system.mem_ctrl.rdQLenPdf::3                       16                       # What read queue length does an incoming req see
system.mem_ctrl.rdQLenPdf::4                        3                       # What read queue length does an incoming req see
system.mem_ctrl.rdQLenPdf::5                        0                       # What read queue length does an incoming req see
system.mem_ctrl.rdQLenPdf::6                        0                       # What read queue length does an incoming req see
system.mem_ctrl.rdQLenPdf::7                        0                       # What read queue length does an incoming req see
system.mem_ctrl.rdQLenPdf::8                        0                       # What read queue length does an incoming req see
system.mem_ctrl.rdQLenPdf::9                        0                       # What read queue length does an incoming req see
system.mem_ctrl.rdQLenPdf::10                       0                       # What read queue length does an incoming req see
system.mem_ctrl.rdQLenPdf::11                       0                       # What read queue length does an incoming req see
system.mem_ctrl.rdQLenPdf::12                       0                       # What read queue length does an incoming req see
system.mem_ctrl.rdQLenPdf::13                       0                       # What read queue length does an incoming req see
system.mem_ctrl.rdQLenPdf::14                       0                       # What read queue length does an incoming req see
system.mem_ctrl.rdQLenPdf::15                       0                       # What read queue length does an incoming req see
system.mem_ctrl.rdQLenPdf::16                       0                       # What read queue length does an incoming req see
system.mem_ctrl.rdQLenPdf::17                       0                       # What read queue length does an incoming req see
system.mem_ctrl.rdQLenPdf::18                       0                       # What read queue length does an incoming req see
system.mem_ctrl.rdQLenPdf::19                       0                       # What read queue length does an incoming req see
system.mem_ctrl.rdQLenPdf::20                       0                       # What read queue length does an incoming req see
system.mem_ctrl.rdQLenPdf::21                       0                       # What read queue length does an incoming req see
system.mem_ctrl.rdQLenPdf::22                       0                       # What read queue length does an incoming req see
system.mem_ctrl.rdQLenPdf::23                       0                       # What read queue length does an incoming req see
system.mem_ctrl.rdQLenPdf::24                       0                       # What read queue length does an incoming req see
system.mem_ctrl.rdQLenPdf::25                       0                       # What read queue length does an incoming req see
system.mem_ctrl.rdQLenPdf::26                       0                       # What read queue length does an incoming req see
system.mem_ctrl.rdQLenPdf::27                       0                       # What read queue length does an incoming req see
system.mem_ctrl.rdQLenPdf::28                       0                       # What read queue length does an incoming req see
system.mem_ctrl.rdQLenPdf::29                       0                       # What read queue length does an incoming req see
system.mem_ctrl.rdQLenPdf::30                       0                       # What read queue length does an incoming req see
system.mem_ctrl.rdQLenPdf::31                       0                       # What read queue length does an incoming req see
system.mem_ctrl.wrQLenPdf::0                        0                       # What write queue length does an incoming req see
system.mem_ctrl.wrQLenPdf::1                        0                       # What write queue length does an incoming req see
system.mem_ctrl.wrQLenPdf::2                        0                       # What write queue length does an incoming req see
system.mem_ctrl.wrQLenPdf::3                        0                       # What write queue length does an incoming req see
system.mem_ctrl.wrQLenPdf::4                        0                       # What write queue length does an incoming req see
system.mem_ctrl.wrQLenPdf::5                        0                       # What write queue length does an incoming req see
system.mem_ctrl.wrQLenPdf::6                        0                       # What write queue length does an incoming req see
system.mem_ctrl.wrQLenPdf::7                        0                       # What write queue length does an incoming req see
system.mem_ctrl.wrQLenPdf::8                        0                       # What write queue length does an incoming req see
system.mem_ctrl.wrQLenPdf::9                        0                       # What write queue length does an incoming req see
system.mem_ctrl.wrQLenPdf::10                       0                       # What write queue length does an incoming req see
system.mem_ctrl.wrQLenPdf::11                       0                       # What write queue length does an incoming req see
system.mem_ctrl.wrQLenPdf::12                       0                       # What write queue length does an incoming req see
system.mem_ctrl.wrQLenPdf::13                       0                       # What write queue length does an incoming req see
system.mem_ctrl.wrQLenPdf::14                       0                       # What write queue length does an incoming req see
system.mem_ctrl.wrQLenPdf::15                       0                       # What write queue length does an incoming req see
system.mem_ctrl.wrQLenPdf::16                       0                       # What write queue length does an incoming req see
system.mem_ctrl.wrQLenPdf::17                       0                       # What write queue length does an incoming req see
system.mem_ctrl.wrQLenPdf::18                       0                       # What write queue length does an incoming req see
system.mem_ctrl.wrQLenPdf::19                       0                       # What write queue length does an incoming req see
system.mem_ctrl.wrQLenPdf::20                       0                       # What write queue length does an incoming req see
system.mem_ctrl.wrQLenPdf::21                       0                       # What write queue length does an incoming req see
system.mem_ctrl.wrQLenPdf::22                       0                       # What write queue length does an incoming req see
system.mem_ctrl.wrQLenPdf::23                       0                       # What write queue length does an incoming req see
system.mem_ctrl.wrQLenPdf::24                       0                       # What write queue length does an incoming req see
system.mem_ctrl.wrQLenPdf::25                       0                       # What write queue length does an incoming req see
system.mem_ctrl.wrQLenPdf::26                       0                       # What write queue length does an incoming req see
system.mem_ctrl.wrQLenPdf::27                       0                       # What write queue length does an incoming req see
system.mem_ctrl.wrQLenPdf::28                       0                       # What write queue length does an incoming req see
system.mem_ctrl.wrQLenPdf::29                       0                       # What write queue length does an incoming req see
system.mem_ctrl.wrQLenPdf::30                       0                       # What write queue length does an incoming req see
system.mem_ctrl.wrQLenPdf::31                       0                       # What write queue length does an incoming req see
system.mem_ctrl.wrQLenPdf::32                       0                       # What write queue length does an incoming req see
system.mem_ctrl.wrQLenPdf::33                       0                       # What write queue length does an incoming req see
system.mem_ctrl.wrQLenPdf::34                       0                       # What write queue length does an incoming req see
system.mem_ctrl.wrQLenPdf::35                       0                       # What write queue length does an incoming req see
system.mem_ctrl.wrQLenPdf::36                       0                       # What write queue length does an incoming req see
system.mem_ctrl.wrQLenPdf::37                       0                       # What write queue length does an incoming req see
system.mem_ctrl.wrQLenPdf::38                       0                       # What write queue length does an incoming req see
system.mem_ctrl.wrQLenPdf::39                       0                       # What write queue length does an incoming req see
system.mem_ctrl.wrQLenPdf::40                       0                       # What write queue length does an incoming req see
system.mem_ctrl.wrQLenPdf::41                       0                       # What write queue length does an incoming req see
system.mem_ctrl.wrQLenPdf::42                       0                       # What write queue length does an incoming req see
system.mem_ctrl.wrQLenPdf::43                       0                       # What write queue length does an incoming req see
system.mem_ctrl.wrQLenPdf::44                       0                       # What write queue length does an incoming req see
system.mem_ctrl.wrQLenPdf::45                       0                       # What write queue length does an incoming req see
system.mem_ctrl.wrQLenPdf::46                       0                       # What write queue length does an incoming req see
system.mem_ctrl.wrQLenPdf::47                       0                       # What write queue length does an incoming req see
system.mem_ctrl.wrQLenPdf::48                       0                       # What write queue length does an incoming req see
system.mem_ctrl.wrQLenPdf::49                       0                       # What write queue length does an incoming req see
system.mem_ctrl.wrQLenPdf::50                       0                       # What write queue length does an incoming req see
system.mem_ctrl.wrQLenPdf::51                       0                       # What write queue length does an incoming req see
system.mem_ctrl.wrQLenPdf::52                       0                       # What write queue length does an incoming req see
system.mem_ctrl.wrQLenPdf::53                       0                       # What write queue length does an incoming req see
system.mem_ctrl.wrQLenPdf::54                       0                       # What write queue length does an incoming req see
system.mem_ctrl.wrQLenPdf::55                       0                       # What write queue length does an incoming req see
system.mem_ctrl.wrQLenPdf::56                       0                       # What write queue length does an incoming req see
system.mem_ctrl.wrQLenPdf::57                       0                       # What write queue length does an incoming req see
system.mem_ctrl.wrQLenPdf::58                       0                       # What write queue length does an incoming req see
system.mem_ctrl.wrQLenPdf::59                       0                       # What write queue length does an incoming req see
system.mem_ctrl.wrQLenPdf::60                       0                       # What write queue length does an incoming req see
system.mem_ctrl.wrQLenPdf::61                       0                       # What write queue length does an incoming req see
system.mem_ctrl.wrQLenPdf::62                       0                       # What write queue length does an incoming req see
system.mem_ctrl.wrQLenPdf::63                       0                       # What write queue length does an incoming req see
system.mem_ctrl.bytesPerActivate::samples          182                       # Bytes accessed per row activation
system.mem_ctrl.bytesPerActivate::mean     274.285714                       # Bytes accessed per row activation
system.mem_ctrl.bytesPerActivate::gmean    172.588795                       # Bytes accessed per row activation
system.mem_ctrl.bytesPerActivate::stdev    288.466867                       # Bytes accessed per row activation
system.mem_ctrl.bytesPerActivate::0-127            66     36.26%     36.26% # Bytes accessed per row activation
system.mem_ctrl.bytesPerActivate::128-255           45     24.73%     60.99% # Bytes accessed per row activation
system.mem_ctrl.bytesPerActivate::256-383           30     16.48%     77.47% # Bytes accessed per row activation
system.mem_ctrl.bytesPerActivate::384-511           10      5.49%     82.97% # Bytes accessed per row activation
system.mem_ctrl.bytesPerActivate::512-639            6      3.30%     86.26% # Bytes accessed per row activation
system.mem_ctrl.bytesPerActivate::640-767            6      3.30%     89.56% # Bytes accessed per row activation
system.mem_ctrl.bytesPerActivate::768-895            2      1.10%     90.66% # Bytes accessed per row activation
system.mem_ctrl.bytesPerActivate::896-1023            3      1.65%     92.31% # Bytes accessed per row activation
system.mem_ctrl.bytesPerActivate::1024-1151           14      7.69%    100.00% # Bytes accessed per row activation
system.mem_ctrl.bytesPerActivate::total           182                       # Bytes accessed per row activation
system.mem_ctrl.masterReadBytes::.cpu.inst        35520                       # Per-master bytes read from memory
system.mem_ctrl.masterReadBytes::.cpu.data        16576                       # Per-master bytes read from memory
system.mem_ctrl.masterReadRate::.cpu.inst 797360091.588659167290                       # Per-master bytes read from memory rate (Bytes/sec)
system.mem_ctrl.masterReadRate::.cpu.data 372101376.074707627296                       # Per-master bytes read from memory rate (Bytes/sec)
system.mem_ctrl.masterReadAccesses::.cpu.inst          555                       # Per-master read serviced memory accesses
system.mem_ctrl.masterReadAccesses::.cpu.data          259                       # Per-master read serviced memory accesses
system.mem_ctrl.masterReadTotalLat::.cpu.inst     17534000                       # Per-master read total memory access latency
system.mem_ctrl.masterReadTotalLat::.cpu.data      9430500                       # Per-master read total memory access latency
system.mem_ctrl.masterReadAvgLat::.cpu.inst     31592.79                       # Per-master read average memory access latency
system.mem_ctrl.masterReadAvgLat::.cpu.data     36411.20                       # Per-master read average memory access latency
system.mem_ctrl.totQLat                      11702000                       # Total ticks spent queuing
system.mem_ctrl.totMemAccLat                 26964500                       # Total ticks spent from burst creation until serviced by the DRAM
system.mem_ctrl.totBusLat                     4070000                       # Total ticks spent in databus transfers
system.mem_ctrl.avgQLat                      14375.92                       # Average queueing delay per DRAM burst
system.mem_ctrl.avgBusLat                     5000.00                       # Average bus latency per DRAM burst
system.mem_ctrl.avgMemAccLat                 33125.92                       # Average memory access latency per DRAM burst
system.mem_ctrl.avgRdBW                       1169.46                       # Average DRAM read bandwidth in MiByte/s
system.mem_ctrl.avgWrBW                          0.00                       # Average achieved write bandwidth in MiByte/s
system.mem_ctrl.avgRdBWSys                    1169.46                       # Average system read bandwidth in MiByte/s
system.mem_ctrl.avgWrBWSys                       0.00                       # Average system write bandwidth in MiByte/s
system.mem_ctrl.peakBW                       12800.00                       # Theoretical peak bandwidth in MiByte/s
system.mem_ctrl.busUtil                          9.14                       # Data bus utilization in percentage
system.mem_ctrl.busUtilRead                      9.14                       # Data bus utilization in percentage for reads
system.mem_ctrl.busUtilWrite                     0.00                       # Data bus utilization in percentage for writes
system.mem_ctrl.avgRdQLen                        1.62                       # Average read queue length when enqueuing
system.mem_ctrl.avgWrQLen                        0.00                       # Average write queue length when enqueuing
system.mem_ctrl.readRowHits                       620                       # Number of row buffer hits during reads
system.mem_ctrl.writeRowHits                        0                       # Number of row buffer hits during writes
system.mem_ctrl.readRowHitRate                  76.17                       # Row buffer hit rate for reads
system.mem_ctrl.writeRowHitRate                   nan                       # Row buffer hit rate for writes
system.mem_ctrl.avgGap                       54613.64                       # Average gap between requests
system.mem_ctrl.pageHitRate                     76.17                       # Row buffer hit rate, read and write combined
system.mem_ctrl_0.actEnergy                    621180                       # Energy for activate commands per rank (pJ)
system.mem_ctrl_0.preEnergy                    307395                       # Energy for precharge commands per rank (pJ)
system.mem_ctrl_0.readEnergy                  2741760                       # Energy for read commands per rank (pJ)
system.mem_ctrl_0.writeEnergy                       0                       # Energy for write commands per rank (pJ)
system.mem_ctrl_0.refreshEnergy          3073200.000000                       # Energy for refresh commands per rank (pJ)
system.mem_ctrl_0.actBackEnergy               5220060                       # Energy for active background per rank (pJ)
system.mem_ctrl_0.preBackEnergy                 96480                       # Energy for precharge background per rank (pJ)
system.mem_ctrl_0.actPowerDownEnergy         14676930                       # Energy for active power-down per rank (pJ)
system.mem_ctrl_0.prePowerDownEnergy           254400                       # Energy for precharge power-down per rank (pJ)
system.mem_ctrl_0.selfRefreshEnergy                 0                       # Energy for self refresh per rank (pJ)
system.mem_ctrl_0.totalEnergy                26991405                       # Total energy per rank (pJ)
system.mem_ctrl_0.averagePower             605.908479                       # Core power per rank (mW)
system.mem_ctrl_0.totalIdleTime              32804750                       # Total Idle time Per DRAM Rank
system.mem_ctrl_0.memoryStateTime::IDLE         30500                       # Time in different power states
system.mem_ctrl_0.memoryStateTime::REF        1300000                       # Time in different power states
system.mem_ctrl_0.memoryStateTime::SREF             0                       # Time in different power states
system.mem_ctrl_0.memoryStateTime::PRE_PDN       662000                       # Time in different power states
system.mem_ctrl_0.memoryStateTime::ACT       10363500                       # Time in different power states
system.mem_ctrl_0.memoryStateTime::ACT_PDN     32191000                       # Time in different power states
system.mem_ctrl_1.actEnergy                    763980                       # Energy for activate commands per rank (pJ)
system.mem_ctrl_1.preEnergy                    383295                       # Energy for precharge commands per rank (pJ)
system.mem_ctrl_1.readEnergy                  3070200                       # Energy for read commands per rank (pJ)
system.mem_ctrl_1.writeEnergy                       0                       # Energy for write commands per rank (pJ)
system.mem_ctrl_1.refreshEnergy          3073200.000000                       # Energy for refresh commands per rank (pJ)
system.mem_ctrl_1.actBackEnergy               5458890                       # Energy for active background per rank (pJ)
system.mem_ctrl_1.preBackEnergy                108480                       # Energy for precharge background per rank (pJ)
system.mem_ctrl_1.actPowerDownEnergy         14723670                       # Energy for active power-down per rank (pJ)
system.mem_ctrl_1.prePowerDownEnergy             1920                       # Energy for precharge power-down per rank (pJ)
system.mem_ctrl_1.selfRefreshEnergy                 0                       # Energy for self refresh per rank (pJ)
system.mem_ctrl_1.totalEnergy                27583635                       # Total energy per rank (pJ)
system.mem_ctrl_1.averagePower             619.202977                       # Core power per rank (mW)
system.mem_ctrl_1.totalIdleTime              32073750                       # Total Idle time Per DRAM Rank
system.mem_ctrl_1.memoryStateTime::IDLE        130000                       # Time in different power states
system.mem_ctrl_1.memoryStateTime::REF        1300000                       # Time in different power states
system.mem_ctrl_1.memoryStateTime::SREF             0                       # Time in different power states
system.mem_ctrl_1.memoryStateTime::PRE_PDN         5000                       # Time in different power states
system.mem_ctrl_1.memoryStateTime::ACT       10808000                       # Time in different power states
system.mem_ctrl_1.memoryStateTime::ACT_PDN     32304000                       # Time in different power states
system.pwrStateResidencyTicks::UNDEFINED     44547000                       # Cumulative time (in ticks) in various power states
system.cpu.branchPred.lookups                    5851                       # Number of BP lookups
system.cpu.branchPred.condPredicted              5851                       # Number of conditional branches predicted
system.cpu.branchPred.condIncorrect               941                       # Number of conditional branches incorrect
system.cpu.branchPred.BTBLookups                 5340                       # Number of BTB lookups
system.cpu.branchPred.BTBHits                       0                       # Number of BTB hits
system.cpu.branchPred.BTBCorrect                    0                       # Number of correct BTB predictions (this stat may not work properly.
system.cpu.branchPred.BTBHitPct              0.000000                       # BTB Hit Percentage
system.cpu.branchPred.usedRAS                     429                       # Number of times the RAS was used to get a target.
system.cpu.branchPred.RASInCorrect                143                       # Number of incorrect RAS predictions.
system.cpu.branchPred.indirectLookups            5340                       # Number of indirect predictor lookups.
system.cpu.branchPred.indirectHits                612                       # Number of indirect target hits.
system.cpu.branchPred.indirectMisses             4728                       # Number of indirect misses.
system.cpu.branchPredindirectMispredicted          755                       # Number of mispredicted indirect branches.
system.cpu.dtb.walker.pwrStateResidencyTicks::UNDEFINED     44547000                       # Cumulative time (in ticks) in various power states
system.cpu.dtb.rdAccesses                        2573                       # TLB accesses on read requests
system.cpu.dtb.wrAccesses                        1995                       # TLB accesses on write requests
system.cpu.dtb.rdMisses                           100                       # TLB misses on read requests
system.cpu.dtb.wrMisses                            49                       # TLB misses on write requests
system.cpu.apic_clk_domain.clock                 8000                       # Clock period in ticks
system.cpu.interrupts.pwrStateResidencyTicks::UNDEFINED     44547000                       # Cumulative time (in ticks) in various power states
system.cpu.itb.walker.pwrStateResidencyTicks::UNDEFINED     44547000                       # Cumulative time (in ticks) in various power states
system.cpu.itb.rdAccesses                           0                       # TLB accesses on read requests
system.cpu.itb.wrAccesses                        3392                       # TLB accesses on write requests
system.cpu.itb.rdMisses                             0                       # TLB misses on read requests
system.cpu.itb.wrMisses                           146                       # TLB misses on write requests
system.cpu.workload.numSyscalls                    11                       # Number of system calls
system.cpu.pwrStateResidencyTicks::ON        44547000                       # Cumulative time (in ticks) in various power states
system.cpu.numCycles                            89095                       # number of cpu cycles simulated
system.cpu.numWorkItemsStarted                      0                       # number of work items this cpu started
system.cpu.numWorkItemsCompleted                    0                       # number of work items this cpu completed
system.cpu.fetch.icacheStallCycles              35041                       # Number of cycles fetch is stalled on an Icache miss
system.cpu.fetch.Insts                          26010                       # Number of instructions fetch has processed
system.cpu.fetch.Branches                        5851                       # Number of branches that fetch encountered
system.cpu.fetch.predictedBranches               1041                       # Number of branches that fetch has predicted taken
system.cpu.fetch.Cycles                         27788                       # Number of cycles fetch has run and was not squashing or blocked
system.cpu.fetch.SquashCycles                    2016                       # Number of cycles fetch has spent squashing
system.cpu.fetch.MiscStallCycles                   71                       # Number of cycles fetch has spent waiting on interrupts, or bad addresses, or out of MSHRs
system.cpu.fetch.PendingTrapStallCycles           843                       # Number of stall cycles due to pending traps
system.cpu.fetch.PendingQuiesceStallCycles           24                       # Number of stall cycles due to pending quiesce instructions
system.cpu.fetch.IcacheWaitRetryStallCycles           94                       # Number of stall cycles due to full MSHR
system.cpu.fetch.CacheLines                      3295                       # Number of cache lines fetched
system.cpu.fetch.IcacheSquashes                   371                       # Number of outstanding Icache misses that were squashed
system.cpu.fetch.rateDist::samples              64869                       # Number of instructions fetched each cycle (Total)
system.cpu.fetch.rateDist::mean              0.812006                       # Number of instructions fetched each cycle (Total)
system.cpu.fetch.rateDist::stdev             1.575564                       # Number of instructions fetched each cycle (Total)
system.cpu.fetch.rateDist::underflows               0      0.00%      0.00% # Number of instructions fetched each cycle (Total)
system.cpu.fetch.rateDist::0                    50708     78.17%     78.17% # Number of instructions fetched each cycle (Total)
system.cpu.fetch.rateDist::1                      587      0.90%     79.07% # Number of instructions fetched each cycle (Total)
system.cpu.fetch.rateDist::2                      746      1.15%     80.22% # Number of instructions fetched each cycle (Total)
system.cpu.fetch.rateDist::3                      717      1.11%     81.33% # Number of instructions fetched each cycle (Total)
system.cpu.fetch.rateDist::4                    12111     18.67%    100.00% # Number of instructions fetched each cycle (Total)
system.cpu.fetch.rateDist::overflows                0      0.00%    100.00% # Number of instructions fetched each cycle (Total)
system.cpu.fetch.rateDist::min_value                0                       # Number of instructions fetched each cycle (Total)
system.cpu.fetch.rateDist::max_value                4                       # Number of instructions fetched each cycle (Total)
system.cpu.fetch.rateDist::total                64869                       # Number of instructions fetched each cycle (Total)
system.cpu.fetch.branchRate                  0.065671                       # Number of branch fetches per cycle
system.cpu.fetch.rate                        0.291936                       # Number of inst fetches per cycle
system.cpu.decode.IdleCycles                    33635                       # Number of cycles decode is idle
system.cpu.decode.BlockedCycles                 18017                       # Number of cycles decode is blocked
system.cpu.decode.RunCycles                     11580                       # Number of cycles decode is running
system.cpu.decode.UnblockCycles                   629                       # Number of cycles decode is unblocking
system.cpu.decode.SquashCycles                   1008                       # Number of cycles decode is squashing
system.cpu.decode.DecodedInsts                  43587                       # Number of instructions handled by decode
system.cpu.decode.SquashedInsts                  3074                       # Number of squashed instructions handled by decode
system.cpu.rename.SquashCycles                   1008                       # Number of cycles rename is squashing
system.cpu.rename.IdleCycles                    35310                       # Number of cycles rename is idle
system.cpu.rename.BlockCycles                    5809                       # Number of cycles rename is blocking
system.cpu.rename.serializeStallCycles           2398                       # count of cycles rename stalled for serializing inst
system.cpu.rename.RunCycles                     10491                       # Number of cycles rename is running
system.cpu.rename.UnblockCycles                  9853                       # Number of cycles rename is unblocking
system.cpu.rename.RenamedInsts                  39713                       # Number of instructions processed by rename
system.cpu.rename.SquashedInsts                  1479                       # Number of squashed instructions processed by rename
system.cpu.rename.ROBFullEvents                    30                       # Number of times rename has blocked due to ROB full
system.cpu.rename.IQFullEvents                    173                       # Number of times rename has blocked due to IQ full
system.cpu.rename.SQFullEvents                   9349                       # Number of times rename has blocked due to SQ full
system.cpu.rename.FullRegisterEvents              111                       # Number of times there has been no free registers
system.cpu.rename.RenamedOperands               42673                       # Number of destination operands rename has renamed
system.cpu.rename.RenameLookups                 97297                       # Number of register rename lookups that rename has made
system.cpu.rename.int_rename_lookups            54659                       # Number of integer rename lookups
system.cpu.rename.fp_rename_lookups              4300                       # Number of floating rename lookups
system.cpu.rename.CommittedMaps                 16872                       # Number of HB maps that are committed
system.cpu.rename.UndoneMaps                    25801                       # Number of HB maps that are undone due to squashing
system.cpu.rename.serializingInsts                 39                       # count of serializing insts renamed
system.cpu.rename.tempSerializingInsts             36                       # count of temporary serializing insts renamed
system.cpu.rename.skidInsts                      2334                       # count of insts added to the skid buffer
system.cpu.memDep0.insertedLoads                 3946                       # Number of loads inserted to the mem dependence unit.
system.cpu.memDep0.insertedStores                3131                       # Number of stores inserted to the mem dependence unit.
system.cpu.memDep0.conflictingLoads                37                       # Number of conflicting loads.
system.cpu.memDep0.conflictingStores               65                       # Number of conflicting stores.
system.cpu.iq.iqInstsAdded                      36276                       # Number of instructions added to the IQ (excludes non-spec)
system.cpu.iq.iqNonSpecInstsAdded                 103                       # Number of non-speculative instructions added to the IQ
system.cpu.iq.iqInstsIssued                     27021                       # Number of instructions issued
system.cpu.iq.iqSquashedInstsIssued              2226                       # Number of squashed instructions issued
system.cpu.iq.iqSquashedInstsExamined           20755                       # Number of squashed instructions iterated over during squash; mainly for profiling
system.cpu.iq.iqSquashedOperandsExamined        32401                       # Number of squashed operands that are examined and possibly removed from graph
system.cpu.iq.iqSquashedNonSpecRemoved             92                       # Number of squashed non-spec instructions that were removed
system.cpu.iq.issued_per_cycle::samples         64869                       # Number of insts issued each cycle
system.cpu.iq.issued_per_cycle::mean         0.416547                       # Number of insts issued each cycle
system.cpu.iq.issued_per_cycle::stdev        0.893661                       # Number of insts issued each cycle
system.cpu.iq.issued_per_cycle::underflows            0      0.00%      0.00% # Number of insts issued each cycle
system.cpu.iq.issued_per_cycle::0               51763     79.80%     79.80% # Number of insts issued each cycle
system.cpu.iq.issued_per_cycle::1                3070      4.73%     84.53% # Number of insts issued each cycle
system.cpu.iq.issued_per_cycle::2                6383      9.84%     94.37% # Number of insts issued each cycle
system.cpu.iq.issued_per_cycle::3                3427      5.28%     99.65% # Number of insts issued each cycle
system.cpu.iq.issued_per_cycle::4                 226      0.35%    100.00% # Number of insts issued each cycle
system.cpu.iq.issued_per_cycle::overflows            0      0.00%    100.00% # Number of insts issued each cycle
system.cpu.iq.issued_per_cycle::min_value            0                       # Number of insts issued each cycle
system.cpu.iq.issued_per_cycle::max_value            4                       # Number of insts issued each cycle
system.cpu.iq.issued_per_cycle::total           64869                       # Number of insts issued each cycle
system.cpu.iq.fu_full::No_OpClass                   0      0.00%      0.00% # attempts to use FU when none available
system.cpu.iq.fu_full::IntAlu                    6050     76.15%     76.15% # attempts to use FU when none available
system.cpu.iq.fu_full::IntMult                      0      0.00%     76.15% # attempts to use FU when none available
system.cpu.iq.fu_full::IntDiv                       0      0.00%     76.15% # attempts to use FU when none available
system.cpu.iq.fu_full::FloatAdd                     0      0.00%     76.15% # attempts to use FU when none available
system.cpu.iq.fu_full::FloatCmp                     0      0.00%     76.15% # attempts to use FU when none available
system.cpu.iq.fu_full::FloatCvt                     0      0.00%     76.15% # attempts to use FU when none available
system.cpu.iq.fu_full::FloatMult                    0      0.00%     76.15% # attempts to use FU when none available
system.cpu.iq.fu_full::FloatMultAcc                 0      0.00%     76.15% # attempts to use FU when none available
system.cpu.iq.fu_full::FloatDiv                     0      0.00%     76.15% # attempts to use FU when none available
system.cpu.iq.fu_full::FloatMisc                    0      0.00%     76.15% # attempts to use FU when none available
system.cpu.iq.fu_full::FloatSqrt                    0      0.00%     76.15% # attempts to use FU when none available
system.cpu.iq.fu_full::SimdAdd                    268      3.37%     79.52% # attempts to use FU when none available
system.cpu.iq.fu_full::SimdAddAcc                   0      0.00%     79.52% # attempts to use FU when none available
system.cpu.iq.fu_full::SimdAlu                     79      0.99%     80.52% # attempts to use FU when none available
system.cpu.iq.fu_full::SimdCmp                      1      0.01%     80.53% # attempts to use FU when none available
system.cpu.iq.fu_full::SimdCvt                     66      0.83%     81.36% # attempts to use FU when none available
system.cpu.iq.fu_full::SimdMisc                   182      2.29%     83.65% # attempts to use FU when none available
system.cpu.iq.fu_full::SimdMult                     0      0.00%     83.65% # attempts to use FU when none available
system.cpu.iq.fu_full::SimdMultAcc                  0      0.00%     83.65% # attempts to use FU when none available
system.cpu.iq.fu_full::SimdShift                  124      1.56%     85.21% # attempts to use FU when none available
system.cpu.iq.fu_full::SimdShiftAcc                 0      0.00%     85.21% # attempts to use FU when none available
system.cpu.iq.fu_full::SimdSqrt                     0      0.00%     85.21% # attempts to use FU when none available
system.cpu.iq.fu_full::SimdFloatAdd                 0      0.00%     85.21% # attempts to use FU when none available
system.cpu.iq.fu_full::SimdFloatAlu                 0      0.00%     85.21% # attempts to use FU when none available
system.cpu.iq.fu_full::SimdFloatCmp                 0      0.00%     85.21% # attempts to use FU when none available
system.cpu.iq.fu_full::SimdFloatCvt                 0      0.00%     85.21% # attempts to use FU when none available
system.cpu.iq.fu_full::SimdFloatDiv                 0      0.00%     85.21% # attempts to use FU when none available
system.cpu.iq.fu_full::SimdFloatMisc                0      0.00%     85.21% # attempts to use FU when none available
system.cpu.iq.fu_full::SimdFloatMult                0      0.00%     85.21% # attempts to use FU when none available
system.cpu.iq.fu_full::SimdFloatMultAcc             0      0.00%     85.21% # attempts to use FU when none available
system.cpu.iq.fu_full::SimdFloatSqrt                0      0.00%     85.21% # attempts to use FU when none available
system.cpu.iq.fu_full::SimdAes                      0      0.00%     85.21% # attempts to use FU when none available
system.cpu.iq.fu_full::SimdAesMix                   0      0.00%     85.21% # attempts to use FU when none available
system.cpu.iq.fu_full::SimdSha1Hash                 0      0.00%     85.21% # attempts to use FU when none available
system.cpu.iq.fu_full::SimdSha1Hash2                0      0.00%     85.21% # attempts to use FU when none available
system.cpu.iq.fu_full::SimdSha256Hash               0      0.00%     85.21% # attempts to use FU when none available
system.cpu.iq.fu_full::SimdSha256Hash2              0      0.00%     85.21% # attempts to use FU when none available
system.cpu.iq.fu_full::SimdShaSigma2                0      0.00%     85.21% # attempts to use FU when none available
system.cpu.iq.fu_full::SimdShaSigma3                0      0.00%     85.21% # attempts to use FU when none available
system.cpu.iq.fu_full::MemRead                    870     10.95%     96.16% # attempts to use FU when none available
system.cpu.iq.fu_full::MemWrite                   305      3.84%    100.00% # attempts to use FU when none available
system.cpu.iq.fu_full::FloatMemRead                 0      0.00%    100.00% # attempts to use FU when none available
system.cpu.iq.fu_full::FloatMemWrite                0      0.00%    100.00% # attempts to use FU when none available
system.cpu.iq.fu_full::IprAccess                    0      0.00%    100.00% # attempts to use FU when none available
system.cpu.iq.fu_full::InstPrefetch                 0      0.00%    100.00% # attempts to use FU when none available
system.cpu.iq.FU_type_0::No_OpClass               431      1.60%      1.60% # Type of FU issued
system.cpu.iq.FU_type_0::IntAlu                 20305     75.15%     76.74% # Type of FU issued
system.cpu.iq.FU_type_0::IntMult                    4      0.01%     76.76% # Type of FU issued
system.cpu.iq.FU_type_0::IntDiv                    31      0.11%     76.87% # Type of FU issued
system.cpu.iq.FU_type_0::FloatAdd                  15      0.06%     76.93% # Type of FU issued
system.cpu.iq.FU_type_0::FloatCmp                   0      0.00%     76.93% # Type of FU issued
system.cpu.iq.FU_type_0::FloatCvt                   0      0.00%     76.93% # Type of FU issued
system.cpu.iq.FU_type_0::FloatMult                  0      0.00%     76.93% # Type of FU issued
system.cpu.iq.FU_type_0::FloatMultAcc               0      0.00%     76.93% # Type of FU issued
system.cpu.iq.FU_type_0::FloatDiv                   0      0.00%     76.93% # Type of FU issued
system.cpu.iq.FU_type_0::FloatMisc                  0      0.00%     76.93% # Type of FU issued
system.cpu.iq.FU_type_0::FloatSqrt                  0      0.00%     76.93% # Type of FU issued
system.cpu.iq.FU_type_0::SimdAdd                  378      1.40%     78.32% # Type of FU issued
system.cpu.iq.FU_type_0::SimdAddAcc                 0      0.00%     78.32% # Type of FU issued
system.cpu.iq.FU_type_0::SimdAlu                  102      0.38%     78.70% # Type of FU issued
system.cpu.iq.FU_type_0::SimdCmp                    6      0.02%     78.72% # Type of FU issued
system.cpu.iq.FU_type_0::SimdCvt                  164      0.61%     79.33% # Type of FU issued
system.cpu.iq.FU_type_0::SimdMisc                 275      1.02%     80.35% # Type of FU issued
system.cpu.iq.FU_type_0::SimdMult                   0      0.00%     80.35% # Type of FU issued
system.cpu.iq.FU_type_0::SimdMultAcc                0      0.00%     80.35% # Type of FU issued
system.cpu.iq.FU_type_0::SimdShift                186      0.69%     81.04% # Type of FU issued
system.cpu.iq.FU_type_0::SimdShiftAcc               0      0.00%     81.04% # Type of FU issued
system.cpu.iq.FU_type_0::SimdSqrt                   0      0.00%     81.04% # Type of FU issued
system.cpu.iq.FU_type_0::SimdFloatAdd               0      0.00%     81.04% # Type of FU issued
system.cpu.iq.FU_type_0::SimdFloatAlu               0      0.00%     81.04% # Type of FU issued
system.cpu.iq.FU_type_0::SimdFloatCmp               0      0.00%     81.04% # Type of FU issued
system.cpu.iq.FU_type_0::SimdFloatCvt               0      0.00%     81.04% # Type of FU issued
system.cpu.iq.FU_type_0::SimdFloatDiv               0      0.00%     81.04% # Type of FU issued
system.cpu.iq.FU_type_0::SimdFloatMisc              0      0.00%     81.04% # Type of FU issued
system.cpu.iq.FU_type_0::SimdFloatMult              0      0.00%     81.04% # Type of FU issued
system.cpu.iq.FU_type_0::SimdFloatMultAcc            0      0.00%     81.04% # Type of FU issued
system.cpu.iq.FU_type_0::SimdFloatSqrt              0      0.00%     81.04% # Type of FU issued
system.cpu.iq.FU_type_0::SimdAes                    0      0.00%     81.04% # Type of FU issued
system.cpu.iq.FU_type_0::SimdAesMix                 0      0.00%     81.04% # Type of FU issued
system.cpu.iq.FU_type_0::SimdSha1Hash               0      0.00%     81.04% # Type of FU issued
system.cpu.iq.FU_type_0::SimdSha1Hash2              0      0.00%     81.04% # Type of FU issued
system.cpu.iq.FU_type_0::SimdSha256Hash             0      0.00%     81.04% # Type of FU issued
system.cpu.iq.FU_type_0::SimdSha256Hash2            0      0.00%     81.04% # Type of FU issued
system.cpu.iq.FU_type_0::SimdShaSigma2              0      0.00%     81.04% # Type of FU issued
system.cpu.iq.FU_type_0::SimdShaSigma3              0      0.00%     81.04% # Type of FU issued
system.cpu.iq.FU_type_0::MemRead                 2744     10.16%     91.19% # Type of FU issued
system.cpu.iq.FU_type_0::MemWrite                1757      6.50%     97.69% # Type of FU issued
system.cpu.iq.FU_type_0::FloatMemRead             179      0.66%     98.36% # Type of FU issued
system.cpu.iq.FU_type_0::FloatMemWrite            444      1.64%    100.00% # Type of FU issued
system.cpu.iq.FU_type_0::IprAccess                  0      0.00%    100.00% # Type of FU issued
system.cpu.iq.FU_type_0::InstPrefetch               0      0.00%    100.00% # Type of FU issued
system.cpu.iq.FU_type_0::total                  27021                       # Type of FU issued
system.cpu.iq.rate                           0.303283                       # Inst issue rate
system.cpu.iq.fu_busy_cnt                        7945                       # FU busy when requested
system.cpu.iq.fu_busy_rate                   0.294031                       # FU busy rate (busy events/executed inst)
system.cpu.iq.int_inst_queue_reads             123715                       # Number of integer instruction queue reads
system.cpu.iq.int_inst_queue_writes             54639                       # Number of integer instruction queue writes
system.cpu.iq.int_inst_queue_wakeup_accesses        21860                       # Number of integer instruction queue wakeup accesses
system.cpu.iq.fp_inst_queue_reads                5367                       # Number of floating instruction queue reads
system.cpu.iq.fp_inst_queue_writes               2503                       # Number of floating instruction queue writes
system.cpu.iq.fp_inst_queue_wakeup_accesses         2211                       # Number of floating instruction queue wakeup accesses
system.cpu.iq.vec_inst_queue_reads                  0                       # Number of vector instruction queue reads
system.cpu.iq.vec_inst_queue_writes                 0                       # Number of vector instruction queue writes
system.cpu.iq.vec_inst_queue_wakeup_accesses            0                       # Number of vector instruction queue wakeup accesses
system.cpu.iq.int_alu_accesses                  31446                       # Number of integer alu accesses
system.cpu.iq.fp_alu_accesses                    3089                       # Number of floating point alu accesses
system.cpu.iq.vec_alu_accesses                      0                       # Number of vector alu accesses
system.cpu.iew.lsq.thread0.forwLoads               61                       # Number of loads that had data forwarded from stores
system.cpu.iew.lsq.thread0.invAddrLoads             0                       # Number of loads ignored due to an invalid address
system.cpu.iew.lsq.thread0.squashedLoads         2451                       # Number of loads squashed
system.cpu.iew.lsq.thread0.ignoredResponses            2                       # Number of memory responses ignored because the instruction is squashed
system.cpu.iew.lsq.thread0.memOrderViolation            8                       # Number of memory ordering violations
system.cpu.iew.lsq.thread0.squashedStores         1597                       # Number of stores squashed
system.cpu.iew.lsq.thread0.invAddrSwpfs             0                       # Number of software prefetches ignored due to an invalid address
system.cpu.iew.lsq.thread0.blockedLoads             0                       # Number of blocked loads due to partial load-store forwarding
system.cpu.iew.lsq.thread0.rescheduledLoads            1                       # Number of loads that were rescheduled
system.cpu.iew.lsq.thread0.cacheBlocked            18                       # Number of times an access to memory failed due to the cache being blocked
system.cpu.iew.iewIdleCycles                        0                       # Number of cycles IEW is idle
system.cpu.iew.iewSquashCycles                   1008                       # Number of cycles IEW is squashing
system.cpu.iew.iewBlockCycles                    1487                       # Number of cycles IEW is blocking
system.cpu.iew.iewUnblockCycles                  1679                       # Number of cycles IEW is unblocking
system.cpu.iew.iewDispatchedInsts               36379                       # Number of instructions dispatched to IQ
system.cpu.iew.iewDispSquashedInsts               205                       # Number of squashed instructions skipped by dispatch
system.cpu.iew.iewDispLoadInsts                  3946                       # Number of dispatched load instructions
system.cpu.iew.iewDispStoreInsts                 3131                       # Number of dispatched store instructions
system.cpu.iew.iewDispNonSpecInsts                 50                       # Number of dispatched non-speculative instructions
system.cpu.iew.iewIQFullEvents                      3                       # Number of times the IQ has become full, causing a stall
system.cpu.iew.iewLSQFullEvents                  1665                       # Number of times the LSQ has become full, causing a stall
system.cpu.iew.memOrderViolationEvents              8                       # Number of memory order violations
system.cpu.iew.predictedTakenIncorrect            187                       # Number of branches that were predicted taken incorrectly
system.cpu.iew.predictedNotTakenIncorrect         1006                       # Number of branches that were predicted not taken incorrectly
system.cpu.iew.branchMispredicts                 1193                       # Number of branch mispredicts detected at execute
system.cpu.iew.iewExecutedInsts                 24656                       # Number of executed instructions
system.cpu.iew.iewExecLoadInsts                  2562                       # Number of load instructions executed
system.cpu.iew.iewExecSquashedInsts              2365                       # Number of squashed instructions skipped in execute
system.cpu.iew.exec_swp                             0                       # number of swp insts executed
system.cpu.iew.exec_nop                             0                       # number of nop insts executed
system.cpu.iew.exec_refs                         4556                       # number of memory reference insts executed
system.cpu.iew.exec_branches                     2141                       # Number of branches executed
system.cpu.iew.exec_stores                       1994                       # Number of stores executed
system.cpu.iew.exec_rate                     0.276738                       # Inst execution rate
system.cpu.iew.wb_sent                          24347                       # cumulative count of insts sent to commit
system.cpu.iew.wb_count                         24071                       # cumulative count of insts written-back
system.cpu.iew.wb_producers                     17016                       # num instructions producing a value
system.cpu.iew.wb_consumers                     26979                       # num instructions consuming a value
system.cpu.iew.wb_rate                       0.270172                       # insts written-back per cycle
system.cpu.iew.wb_fanout                     0.630713                       # average fanout of values written-back
system.cpu.commit.commitSquashedInsts           18987                       # The number of squashed insts skipped by commit
system.cpu.commit.commitNonSpecStalls              11                       # The number of times commit has been forced to stall to communicate backwards
system.cpu.commit.branchMispredicts              1003                       # The number of times a branch was mispredicted
system.cpu.commit.committed_per_cycle::samples        62913                       # Number of insts commited each cycle
system.cpu.commit.committed_per_cycle::mean     0.248327                       # Number of insts commited each cycle
system.cpu.commit.committed_per_cycle::stdev     0.802556                       # Number of insts commited each cycle
system.cpu.commit.committed_per_cycle::underflows            0      0.00%      0.00% # Number of insts commited each cycle
system.cpu.commit.committed_per_cycle::0        55828     88.74%     88.74% # Number of insts commited each cycle
system.cpu.commit.committed_per_cycle::1         2878      4.57%     93.31% # Number of insts commited each cycle
system.cpu.commit.committed_per_cycle::2         1396      2.22%     95.53% # Number of insts commited each cycle
system.cpu.commit.committed_per_cycle::3         1291      2.05%     97.58% # Number of insts commited each cycle
system.cpu.commit.committed_per_cycle::4         1520      2.42%    100.00% # Number of insts commited each cycle
system.cpu.commit.committed_per_cycle::overflows            0      0.00%    100.00% # Number of insts commited each cycle
system.cpu.commit.committed_per_cycle::min_value            0                       # Number of insts commited each cycle
system.cpu.commit.committed_per_cycle::max_value            4                       # Number of insts commited each cycle
system.cpu.commit.committed_per_cycle::total        62913                       # Number of insts commited each cycle
system.cpu.commit.committedInsts                 7741                       # Number of instructions committed
system.cpu.commit.committedOps                  15623                       # Number of ops (including micro ops) committed
system.cpu.commit.swp_count                         0                       # Number of s/w prefetches committed
system.cpu.commit.refs                           3029                       # Number of memory references committed
system.cpu.commit.loads                          1495                       # Number of loads committed
system.cpu.commit.membars                           0                       # Number of memory barriers committed
system.cpu.commit.branches                       1557                       # Number of branches committed
system.cpu.commit.vec_insts                         0                       # Number of committed Vector instructions.
system.cpu.commit.fp_insts                       2171                       # Number of committed floating point instructions.
system.cpu.commit.int_insts                     13976                       # Number of committed integer instructions.
system.cpu.commit.function_calls                  153                       # Number of function calls committed.
system.cpu.commit.op_class_0::No_OpClass          110      0.70%      0.70% # Class of committed instruction
system.cpu.commit.op_class_0::IntAlu            11338     72.57%     73.28% # Class of committed instruction
system.cpu.commit.op_class_0::IntMult               4      0.03%     73.30% # Class of committed instruction
system.cpu.commit.op_class_0::IntDiv               28      0.18%     73.48% # Class of committed instruction
system.cpu.commit.op_class_0::FloatAdd             12      0.08%     73.56% # Class of committed instruction
system.cpu.commit.op_class_0::FloatCmp              0      0.00%     73.56% # Class of committed instruction
system.cpu.commit.op_class_0::FloatCvt              0      0.00%     73.56% # Class of committed instruction
system.cpu.commit.op_class_0::FloatMult             0      0.00%     73.56% # Class of committed instruction
system.cpu.commit.op_class_0::FloatMultAcc            0      0.00%     73.56% # Class of committed instruction
system.cpu.commit.op_class_0::FloatDiv              0      0.00%     73.56% # Class of committed instruction
system.cpu.commit.op_class_0::FloatMisc             0      0.00%     73.56% # Class of committed instruction
system.cpu.commit.op_class_0::FloatSqrt             0      0.00%     73.56% # Class of committed instruction
system.cpu.commit.op_class_0::SimdAdd             374      2.39%     75.95% # Class of committed instruction
system.cpu.commit.op_class_0::SimdAddAcc            0      0.00%     75.95% # Class of committed instruction
system.cpu.commit.op_class_0::SimdAlu              98      0.63%     76.58% # Class of committed instruction
system.cpu.commit.op_class_0::SimdCmp               6      0.04%     76.62% # Class of committed instruction
system.cpu.commit.op_class_0::SimdCvt             164      1.05%     77.67% # Class of committed instruction
system.cpu.commit.op_class_0::SimdMisc            274      1.75%     79.42% # Class of committed instruction
system.cpu.commit.op_class_0::SimdMult              0      0.00%     79.42% # Class of committed instruction
system.cpu.commit.op_class_0::SimdMultAcc            0      0.00%     79.42% # Class of committed instruction
system.cpu.commit.op_class_0::SimdShift           186      1.19%     80.61% # Class of committed instruction
system.cpu.commit.op_class_0::SimdShiftAcc            0      0.00%     80.61% # Class of committed instruction
system.cpu.commit.op_class_0::SimdSqrt              0      0.00%     80.61% # Class of committed instruction
system.cpu.commit.op_class_0::SimdFloatAdd            0      0.00%     80.61% # Class of committed instruction
system.cpu.commit.op_class_0::SimdFloatAlu            0      0.00%     80.61% # Class of committed instruction
system.cpu.commit.op_class_0::SimdFloatCmp            0      0.00%     80.61% # Class of committed instruction
system.cpu.commit.op_class_0::SimdFloatCvt            0      0.00%     80.61% # Class of committed instruction
system.cpu.commit.op_class_0::SimdFloatDiv            0      0.00%     80.61% # Class of committed instruction
system.cpu.commit.op_class_0::SimdFloatMisc            0      0.00%     80.61% # Class of committed instruction
system.cpu.commit.op_class_0::SimdFloatMult            0      0.00%     80.61% # Class of committed instruction
system.cpu.commit.op_class_0::SimdFloatMultAcc            0      0.00%     80.61% # Class of committed instruction
system.cpu.commit.op_class_0::SimdFloatSqrt            0      0.00%     80.61% # Class of committed instruction
system.cpu.commit.op_class_0::SimdAes               0      0.00%     80.61% # Class of committed instruction
system.cpu.commit.op_class_0::SimdAesMix            0      0.00%     80.61% # Class of committed instruction
system.cpu.commit.op_class_0::SimdSha1Hash            0      0.00%     80.61% # Class of committed instruction
system.cpu.commit.op_class_0::SimdSha1Hash2            0      0.00%     80.61% # Class of committed instruction
system.cpu.commit.op_class_0::SimdSha256Hash            0      0.00%     80.61% # Class of committed instruction
system.cpu.commit.op_class_0::SimdSha256Hash2            0      0.00%     80.61% # Class of committed instruction
system.cpu.commit.op_class_0::SimdShaSigma2            0      0.00%     80.61% # Class of committed instruction
system.cpu.commit.op_class_0::SimdShaSigma3            0      0.00%     80.61% # Class of committed instruction
system.cpu.commit.op_class_0::MemRead            1381      8.84%     89.45% # Class of committed instruction
system.cpu.commit.op_class_0::MemWrite           1113      7.12%     96.58% # Class of committed instruction
system.cpu.commit.op_class_0::FloatMemRead          114      0.73%     97.31% # Class of committed instruction
system.cpu.commit.op_class_0::FloatMemWrite          421      2.69%    100.00% # Class of committed instruction
system.cpu.commit.op_class_0::IprAccess             0      0.00%    100.00% # Class of committed instruction
system.cpu.commit.op_class_0::InstPrefetch            0      0.00%    100.00% # Class of committed instruction
system.cpu.commit.op_class_0::total             15623                       # Class of committed instruction
system.cpu.commit.bw_lim_events                  1520                       # number cycles where commit BW limit reached
system.cpu.rob.rob_reads                        96003                       # The number of ROB reads
system.cpu.rob.rob_writes                       71211                       # The number of ROB writes
system.cpu.timesIdled                             299                       # Number of times that the entire CPU went into an idle state and unscheduled itself
system.cpu.idleCycles                           24226                       # Total number of cycles that the CPU has spent unscheduled due to idling
system.cpu.committedInsts                        7741                       # Number of Instructions Simulated
system.cpu.committedOps                         15623                       # Number of Ops (including micro ops) Simulated
system.cpu.cpi                              11.509495                       # CPI: Cycles Per Instruction
system.cpu.cpi_total                        11.509495                       # CPI: Total CPI of All Threads
system.cpu.ipc                               0.086885                       # IPC: Instructions Per Cycle
system.cpu.ipc_total                         0.086885                       # IPC: Total IPC of All Threads
system.cpu.int_regfile_reads                    30581                       # number of integer regfile reads
system.cpu.int_regfile_writes                   18103                       # number of integer regfile writes
system.cpu.fp_regfile_reads                      4152                       # number of floating regfile reads
system.cpu.fp_regfile_writes                     1680                       # number of floating regfile writes
system.cpu.cc_regfile_reads                     10355                       # number of cc regfile reads
system.cpu.cc_regfile_writes                     6113                       # number of cc regfile writes
system.cpu.misc_regfile_reads                   10463                       # number of misc regfile reads
system.cpu.dcache.tags.pwrStateResidencyTicks::UNDEFINED     44547000                       # Cumulative time (in ticks) in various power states
system.cpu.dcache.tags.tagsinuse           149.668678                       # Cycle average of tags in use
system.cpu.dcache.tags.total_refs                3828                       # Total number of references to valid blocks.
system.cpu.dcache.tags.sampled_refs               263                       # Sample count of references to valid blocks.
system.cpu.dcache.tags.avg_refs             14.555133                       # Average number of references to valid blocks.
system.cpu.dcache.tags.warmup_cycle            169500                       # Cycle when the warmup percentage was hit.
system.cpu.dcache.tags.occ_blocks::.cpu.data   149.668678                       # Average occupied blocks per requestor
system.cpu.dcache.tags.occ_percent::.cpu.data     0.292322                       # Average percentage of cache occupancy
system.cpu.dcache.tags.occ_percent::total     0.292322                       # Average percentage of cache occupancy
system.cpu.dcache.tags.occ_task_id_blocks::1024          263                       # Occupied blocks per task id
system.cpu.dcache.tags.age_task_id_blocks_1024::0           39                       # Occupied blocks per task id
system.cpu.dcache.tags.age_task_id_blocks_1024::1          224                       # Occupied blocks per task id
system.cpu.dcache.tags.occ_task_id_percent::1024     0.513672                       # Percentage of cache occupancy per task id
system.cpu.dcache.tags.tag_accesses             31823                       # Number of tag accesses
system.cpu.dcache.tags.data_accesses            31823                       # Number of data accesses
system.cpu.dcache.pwrStateResidencyTicks::UNDEFINED     44547000                       # Cumulative time (in ticks) in various power states
system.cpu.dcache.ReadReq_hits::.cpu.data         2160                       # number of ReadReq hits
system.cpu.dcache.ReadReq_hits::total            2160                       # number of ReadReq hits
system.cpu.dcache.WriteReq_hits::.cpu.data         1405                       # number of WriteReq hits
system.cpu.dcache.WriteReq_hits::total           1405                       # number of WriteReq hits
system.cpu.dcache.demand_hits::.cpu.data         3565                       # number of demand (read+write) hits
system.cpu.dcache.demand_hits::total             3565                       # number of demand (read+write) hits
system.cpu.dcache.overall_hits::.cpu.data         3565                       # number of overall hits
system.cpu.dcache.overall_hits::total            3565                       # number of overall hits
system.cpu.dcache.ReadReq_misses::.cpu.data          251                       # number of ReadReq misses
system.cpu.dcache.ReadReq_misses::total           251                       # number of ReadReq misses
system.cpu.dcache.WriteReq_misses::.cpu.data          129                       # number of WriteReq misses
system.cpu.dcache.WriteReq_misses::total          129                       # number of WriteReq misses
system.cpu.dcache.demand_misses::.cpu.data          380                       # number of demand (read+write) misses
system.cpu.dcache.demand_misses::total            380                       # number of demand (read+write) misses
system.cpu.dcache.overall_misses::.cpu.data          380                       # number of overall misses
system.cpu.dcache.overall_misses::total           380                       # number of overall misses
system.cpu.dcache.ReadReq_miss_latency::.cpu.data     21131000                       # number of ReadReq miss cycles
system.cpu.dcache.ReadReq_miss_latency::total     21131000                       # number of ReadReq miss cycles
system.cpu.dcache.WriteReq_miss_latency::.cpu.data     10626500                       # number of WriteReq miss cycles
system.cpu.dcache.WriteReq_miss_latency::total     10626500                       # number of WriteReq miss cycles
system.cpu.dcache.demand_miss_latency::.cpu.data     31757500                       # number of demand (read+write) miss cycles
system.cpu.dcache.demand_miss_latency::total     31757500                       # number of demand (read+write) miss cycles
system.cpu.dcache.overall_miss_latency::.cpu.data     31757500                       # number of overall miss cycles
system.cpu.dcache.overall_miss_latency::total     31757500                       # number of overall miss cycles
system.cpu.dcache.ReadReq_accesses::.cpu.data         2411                       # number of ReadReq accesses(hits+misses)
system.cpu.dcache.ReadReq_accesses::total         2411                       # number of ReadReq accesses(hits+misses)
system.cpu.dcache.WriteReq_accesses::.cpu.data         1534                       # number of WriteReq accesses(hits+misses)
system.cpu.dcache.WriteReq_accesses::total         1534                       # number of WriteReq accesses(hits+misses)
system.cpu.dcache.demand_accesses::.cpu.data         3945                       # number of demand (read+write) accesses
system.cpu.dcache.demand_accesses::total         3945                       # number of demand (read+write) accesses
system.cpu.dcache.overall_accesses::.cpu.data         3945                       # number of overall (read+write) accesses
system.cpu.dcache.overall_accesses::total         3945                       # number of overall (read+write) accesses
system.cpu.dcache.ReadReq_miss_rate::.cpu.data     0.104106                       # miss rate for ReadReq accesses
system.cpu.dcache.ReadReq_miss_rate::total     0.104106                       # miss rate for ReadReq accesses
system.cpu.dcache.WriteReq_miss_rate::.cpu.data     0.084094                       # miss rate for WriteReq accesses
system.cpu.dcache.WriteReq_miss_rate::total     0.084094                       # miss rate for WriteReq accesses
system.cpu.dcache.demand_miss_rate::.cpu.data     0.096324                       # miss rate for demand accesses
system.cpu.dcache.demand_miss_rate::total     0.096324                       # miss rate for demand accesses
system.cpu.dcache.overall_miss_rate::.cpu.data     0.096324                       # miss rate for overall accesses
system.cpu.dcache.overall_miss_rate::total     0.096324                       # miss rate for overall accesses
system.cpu.dcache.ReadReq_avg_miss_latency::.cpu.data 84187.250996                       # average ReadReq miss latency
[...]
system.l3bus.snoop_fanout::1                        0      0.00%    100.00% # Request fanout histogram
system.l3bus.snoop_fanout::overflows                0      0.00%    100.00% # Request fanout histogram
system.l3bus.snoop_fanout::min_value                0                       # Request fanout histogram
system.l3bus.snoop_fanout::max_value                0                       # Request fanout histogram
system.l3bus.snoop_fanout::total                  814                       # Request fanout histogram
system.l3bus.reqLayer0.occupancy               407000                       # Layer occupancy (ticks)
system.l3bus.reqLayer0.utilization                0.9                       # Layer utilization (%)
system.l3bus.respLayer0.occupancy             2035000                       # Layer occupancy (ticks)
system.l3bus.respLayer0.utilization               4.6                       # Layer utilization (%)
system.l3cache.tags.pwrStateResidencyTicks::UNDEFINED     44547000                       # Cumulative time (in ticks) in various power states
system.l3cache.tags.tagsinuse              410.931823                       # Cycle average of tags in use
system.l3cache.tags.total_refs                    814                       # Total number of references to valid blocks.
system.l3cache.tags.sampled_refs                  814                       # Sample count of references to valid blocks.
system.l3cache.tags.avg_refs                        1                       # Average number of references to valid blocks.
system.l3cache.tags.warmup_cycle                76000                       # Cycle when the warmup percentage was hit.
system.l3cache.tags.occ_blocks::.cpu.inst   262.732570                       # Average occupied blocks per requestor
system.l3cache.tags.occ_blocks::.cpu.data   148.199253                       # Average occupied blocks per requestor
system.l3cache.tags.occ_percent::.cpu.inst     0.008018                       # Average percentage of cache occupancy
system.l3cache.tags.occ_percent::.cpu.data     0.004523                       # Average percentage of cache occupancy
system.l3cache.tags.occ_percent::total       0.012541                       # Average percentage of cache occupancy
system.l3cache.tags.occ_task_id_blocks::1024          814                       # Occupied blocks per task id
system.l3cache.tags.age_task_id_blocks_1024::0          183                       # Occupied blocks per task id
system.l3cache.tags.age_task_id_blocks_1024::1          631                       # Occupied blocks per task id
system.l3cache.tags.occ_task_id_percent::1024     0.024841                       # Percentage of cache occupancy per task id
system.l3cache.tags.tag_accesses                13838                       # Number of tag accesses
system.l3cache.tags.data_accesses               13838                       # Number of data accesses
system.l3cache.pwrStateResidencyTicks::UNDEFINED     44547000                       # Cumulative time (in ticks) in various power states
system.l3cache.ReadExReq_misses::.cpu.data          126                       # number of ReadExReq misses
system.l3cache.ReadExReq_misses::total            126                       # number of ReadExReq misses
system.l3cache.ReadSharedReq_misses::.cpu.inst          555                       # number of ReadSharedReq misses
system.l3cache.ReadSharedReq_misses::.cpu.data          133                       # number of ReadSharedReq misses
system.l3cache.ReadSharedReq_misses::total          688                       # number of ReadSharedReq misses
system.l3cache.demand_misses::.cpu.inst           555                       # number of demand (read+write) misses
system.l3cache.demand_misses::.cpu.data           259                       # number of demand (read+write) misses
system.l3cache.demand_misses::total               814                       # number of demand (read+write) misses
system.l3cache.overall_misses::.cpu.inst          555                       # number of overall misses
system.l3cache.overall_misses::.cpu.data          259                       # number of overall misses
system.l3cache.overall_misses::total              814                       # number of overall misses
system.l3cache.ReadExReq_miss_latency::.cpu.data      8697500                       # number of ReadExReq miss cycles
system.l3cache.ReadExReq_miss_latency::total      8697500                       # number of ReadExReq miss cycles
system.l3cache.ReadSharedReq_miss_latency::.cpu.inst     38191500                       # number of ReadSharedReq miss cycles
system.l3cache.ReadSharedReq_miss_latency::.cpu.data     10370000                       # number of ReadSharedReq miss cycles
system.l3cache.ReadSharedReq_miss_latency::total     48561500                       # number of ReadSharedReq miss cycles
system.l3cache.demand_miss_latency::.cpu.inst     38191500                       # number of demand (read+write) miss cycles
system.l3cache.demand_miss_latency::.cpu.data     19067500                       # number of demand (read+write) miss cycles
system.l3cache.demand_miss_latency::total     57259000                       # number of demand (read+write) miss cycles
system.l3cache.overall_miss_latency::.cpu.inst     38191500                       # number of overall miss cycles
system.l3cache.overall_miss_latency::.cpu.data     19067500                       # number of overall miss cycles
system.l3cache.overall_miss_latency::total     57259000                       # number of overall miss cycles
system.l3cache.ReadExReq_accesses::.cpu.data          126                       # number of ReadExReq accesses(hits+misses)
system.l3cache.ReadExReq_accesses::total          126                       # number of ReadExReq accesses(hits+misses)
system.l3cache.ReadSharedReq_accesses::.cpu.inst          555                       # number of ReadSharedReq accesses(hits+misses)
system.l3cache.ReadSharedReq_accesses::.cpu.data          133                       # number of ReadSharedReq accesses(hits+misses)
system.l3cache.ReadSharedReq_accesses::total          688                       # number of ReadSharedReq accesses(hits+misses)
system.l3cache.demand_accesses::.cpu.inst          555                       # number of demand (read+write) accesses
system.l3cache.demand_accesses::.cpu.data          259                       # number of demand (read+write) accesses
system.l3cache.demand_accesses::total             814                       # number of demand (read+write) accesses
system.l3cache.overall_accesses::.cpu.inst          555                       # number of overall (read+write) accesses
system.l3cache.overall_accesses::.cpu.data          259                       # number of overall (read+write) accesses
system.l3cache.overall_accesses::total            814                       # number of overall (read+write) accesses
system.l3cache.ReadExReq_miss_rate::.cpu.data            1                       # miss rate for ReadExReq accesses
system.l3cache.ReadExReq_miss_rate::total            1                       # miss rate for ReadExReq accesses
system.l3cache.ReadSharedReq_miss_rate::.cpu.inst            1                       # miss rate for ReadSharedReq accesses
system.l3cache.ReadSharedReq_miss_rate::.cpu.data            1                       # miss rate for ReadSharedReq accesses
system.l3cache.ReadSharedReq_miss_rate::total            1                       # miss rate for ReadSharedReq accesses
system.l3cache.demand_miss_rate::.cpu.inst            1                       # miss rate for demand accesses
system.l3cache.demand_miss_rate::.cpu.data            1                       # miss rate for demand accesses
system.l3cache.demand_miss_rate::total              1                       # miss rate for demand accesses
system.l3cache.overall_miss_rate::.cpu.inst            1                       # miss rate for overall accesses
system.l3cache.overall_miss_rate::.cpu.data            1                       # miss rate for overall accesses
system.l3cache.overall_miss_rate::total             1                       # miss rate for overall accesses
system.l3cache.ReadExReq_avg_miss_latency::.cpu.data 69027.777778                       # average ReadExReq miss latency
system.l3cache.ReadExReq_avg_miss_latency::total 69027.777778                       # average ReadExReq miss latency
system.l3cache.ReadSharedReq_avg_miss_latency::.cpu.inst 68813.513514                       # average ReadSharedReq miss latency
system.l3cache.ReadSharedReq_avg_miss_latency::.cpu.data 77969.924812                       # average ReadSharedReq miss latency
system.l3cache.ReadSharedReq_avg_miss_latency::total 70583.575581                       # average ReadSharedReq miss latency
system.l3cache.demand_avg_miss_latency::.cpu.inst 68813.513514                       # average overall miss latency
system.l3cache.demand_avg_miss_latency::.cpu.data 73619.691120                       # average overall miss latency
system.l3cache.demand_avg_miss_latency::total 70342.751843                       # average overall miss latency
system.l3cache.overall_avg_miss_latency::.cpu.inst 68813.513514                       # average overall miss latency
system.l3cache.overall_avg_miss_latency::.cpu.data 73619.691120                       # average overall miss latency
system.l3cache.overall_avg_miss_latency::total 70342.751843                       # average overall miss latency
system.l3cache.blocked_cycles::no_mshrs             0                       # number of cycles access was blocked
system.l3cache.blocked_cycles::no_targets            0                       # number of cycles access was blocked
system.l3cache.blocked::no_mshrs                    0                       # number of cycles access was blocked
system.l3cache.blocked::no_targets                  0                       # number of cycles access was blocked
system.l3cache.avg_blocked_cycles::no_mshrs          nan                       # average number of cycles each access was blocked
system.l3cache.avg_blocked_cycles::no_targets          nan                       # average number of cycles each access was blocked
system.l3cache.ReadExReq_mshr_misses::.cpu.data          126                       # number of ReadExReq MSHR misses
system.l3cache.ReadExReq_mshr_misses::total          126                       # number of ReadExReq MSHR misses
system.l3cache.ReadSharedReq_mshr_misses::.cpu.inst          555                       # number of ReadSharedReq MSHR misses
system.l3cache.ReadSharedReq_mshr_misses::.cpu.data          133                       # number of ReadSharedReq MSHR misses
system.l3cache.ReadSharedReq_mshr_misses::total          688                       # number of ReadSharedReq MSHR misses
system.l3cache.demand_mshr_misses::.cpu.inst          555                       # number of demand (read+write) MSHR misses
system.l3cache.demand_mshr_misses::.cpu.data          259                       # number of demand (read+write) MSHR misses
system.l3cache.demand_mshr_misses::total          814                       # number of demand (read+write) MSHR misses
system.l3cache.overall_mshr_misses::.cpu.inst          555                       # number of overall MSHR misses
system.l3cache.overall_mshr_misses::.cpu.data          259                       # number of overall MSHR misses
system.l3cache.overall_mshr_misses::total          814                       # number of overall MSHR misses
system.l3cache.ReadExReq_mshr_miss_latency::.cpu.data      8445500                       # number of ReadExReq MSHR miss cycles
system.l3cache.ReadExReq_mshr_miss_latency::total      8445500                       # number of ReadExReq MSHR miss cycles
system.l3cache.ReadSharedReq_mshr_miss_latency::.cpu.inst     37081500                       # number of ReadSharedReq MSHR miss cycles
system.l3cache.ReadSharedReq_mshr_miss_latency::.cpu.data     10104000                       # number of ReadSharedReq MSHR miss cycles
system.l3cache.ReadSharedReq_mshr_miss_latency::total     47185500                       # number of ReadSharedReq MSHR miss cycles
system.l3cache.demand_mshr_miss_latency::.cpu.inst     37081500                       # number of demand (read+write) MSHR miss cycles
system.l3cache.demand_mshr_miss_latency::.cpu.data     18549500                       # number of demand (read+write) MSHR miss cycles
system.l3cache.demand_mshr_miss_latency::total     55631000                       # number of demand (read+write) MSHR miss cycles
system.l3cache.overall_mshr_miss_latency::.cpu.inst     37081500                       # number of overall MSHR miss cycles
system.l3cache.overall_mshr_miss_latency::.cpu.data     18549500                       # number of overall MSHR miss cycles
system.l3cache.overall_mshr_miss_latency::total     55631000                       # number of overall MSHR miss cycles
system.l3cache.ReadExReq_mshr_miss_rate::.cpu.data            1                       # mshr miss rate for ReadExReq accesses
system.l3cache.ReadExReq_mshr_miss_rate::total            1                       # mshr miss rate for ReadExReq accesses
system.l3cache.ReadSharedReq_mshr_miss_rate::.cpu.inst            1                       # mshr miss rate for ReadSharedReq accesses
system.l3cache.ReadSharedReq_mshr_miss_rate::.cpu.data            1                       # mshr miss rate for ReadSharedReq accesses
system.l3cache.ReadSharedReq_mshr_miss_rate::total            1                       # mshr miss rate for ReadSharedReq accesses
system.l3cache.demand_mshr_miss_rate::.cpu.inst            1                       # mshr miss rate for demand accesses
system.l3cache.demand_mshr_miss_rate::.cpu.data            1                       # mshr miss rate for demand accesses
system.l3cache.demand_mshr_miss_rate::total            1                       # mshr miss rate for demand accesses
system.l3cache.overall_mshr_miss_rate::.cpu.inst            1                       # mshr miss rate for overall accesses
system.l3cache.overall_mshr_miss_rate::.cpu.data            1                       # mshr miss rate for overall accesses
system.l3cache.overall_mshr_miss_rate::total            1                       # mshr miss rate for overall accesses
system.l3cache.ReadExReq_avg_mshr_miss_latency::.cpu.data 67027.777778                       # average ReadExReq mshr miss latency
system.l3cache.ReadExReq_avg_mshr_miss_latency::total 67027.777778                       # average ReadExReq mshr miss latency
system.l3cache.ReadSharedReq_avg_mshr_miss_latency::.cpu.inst 66813.513514                       # average ReadSharedReq mshr miss latency
system.l3cache.ReadSharedReq_avg_mshr_miss_latency::.cpu.data 75969.924812                       # average ReadSharedReq mshr miss latency
system.l3cache.ReadSharedReq_avg_mshr_miss_latency::total 68583.575581                       # average ReadSharedReq mshr miss latency
system.l3cache.demand_avg_mshr_miss_latency::.cpu.inst 66813.513514                       # average overall mshr miss latency
system.l3cache.demand_avg_mshr_miss_latency::.cpu.data 71619.691120                       # average overall mshr miss latency
system.l3cache.demand_avg_mshr_miss_latency::total 68342.751843                       # average overall mshr miss latency
system.l3cache.overall_avg_mshr_miss_latency::.cpu.inst 66813.513514                       # average overall mshr miss latency
system.l3cache.overall_avg_mshr_miss_latency::.cpu.data 71619.691120                       # average overall mshr miss latency
system.l3cache.overall_avg_mshr_miss_latency::total 68342.751843                       # average overall mshr miss latency
system.l3cache.replacements                         0                       # number of replacements
system.membus.snoop_filter.tot_requests           814                       # Total number of requests made to the snoop filter.
system.membus.snoop_filter.hit_single_requests            0                       # Number of requests hitting in the snoop filter with a single holder of the requested data.
system.membus.snoop_filter.hit_multi_requests            0                       # Number of requests hitting in the snoop filter with multiple (>1) holders of the requested data.
system.membus.snoop_filter.tot_snoops               0                       # Total number of snoops made to the snoop filter.
system.membus.snoop_filter.hit_single_snoops            0                       # Number of snoops hitting in the snoop filter with a single holder of the requested data.
system.membus.snoop_filter.hit_multi_snoops            0                       # Number of snoops hitting in the snoop filter with multiple (>1) holders of the requested data.
system.membus.pwrStateResidencyTicks::UNDEFINED     44547000                       # Cumulative time (in ticks) in various power states
system.membus.trans_dist::ReadResp                688                       # Transaction distribution
system.membus.trans_dist::ReadExReq               126                       # Transaction distribution
system.membus.trans_dist::ReadExResp              126                       # Transaction distribution
system.membus.trans_dist::ReadSharedReq           688                       # Transaction distribution
system.membus.pkt_count_system.l3cache.mem_side::system.mem_ctrl.port         1628                       # Packet count per connected master and slave (bytes)
system.membus.pkt_count_system.l3cache.mem_side::total         1628                       # Packet count per connected master and slave (bytes)
system.membus.pkt_count::total                   1628                       # Packet count per connected master and slave (bytes)
system.membus.pkt_size_system.l3cache.mem_side::system.mem_ctrl.port        52096                       # Cumulative packet size per connected master and slave (bytes)
system.membus.pkt_size_system.l3cache.mem_side::total        52096                       # Cumulative packet size per connected master and slave (bytes)
system.membus.pkt_size::total                   52096                       # Cumulative packet size per connected master and slave (bytes)
system.membus.snoops                                0                       # Total snoops (count)
system.membus.snoopTraffic                          0                       # Total snoop traffic (bytes)
system.membus.snoop_fanout::samples               814                       # Request fanout histogram
system.membus.snoop_fanout::mean                    0                       # Request fanout histogram
system.membus.snoop_fanout::stdev                   0                       # Request fanout histogram
system.membus.snoop_fanout::underflows              0      0.00%      0.00% # Request fanout histogram
system.membus.snoop_fanout::0                     814    100.00%    100.00% # Request fanout histogram
system.membus.snoop_fanout::1                       0      0.00%    100.00% # Request fanout histogram
system.membus.snoop_fanout::overflows               0      0.00%    100.00% # Request fanout histogram
system.membus.snoop_fanout::min_value               0                       # Request fanout histogram
system.membus.snoop_fanout::max_value               0                       # Request fanout histogram
system.membus.snoop_fanout::total                 814                       # Request fanout histogram
system.membus.reqLayer0.occupancy              407000                       # Layer occupancy (ticks)
system.membus.reqLayer0.utilization               0.9                       # Layer utilization (%)
system.membus.respLayer0.occupancy            2211500                       # Layer occupancy (ticks)
system.membus.respLayer0.utilization              5.0                       # Layer utilization (%)

---------- End Simulation Statistics   ----------