
---------- Begin Simulation Statistics ----------
sim_seconds                                  0.000043                       # Number of seconds simulated
sim_ticks                                    42831000                       # Number of ticks simulated
final_tick                                   42831000                       # Number of ticks from beginning of simulation (restored from checkpoints and never reset)
sim_freq                                 1000000000000                       # Frequency of simulated ticks
host_inst_rate                                  34602                       # Simulator instruction rate (inst/s)
host_op_rate                                    69811                       # Simulator op (including micro ops) rate (op/s)
host_tick_rate                              191494947                       # Simulator tick rate (ticks/s)
host_mem_usage                                 655540                       # Number of bytes of host memory used
host_seconds                                     0.22                       # Real time elapsed on the host
sim_insts                                        7739                       # Number of instructions simulated
sim_ops                                         15614                       # Number of ops (including micro ops) simulated
system.clk_domain.voltage_domain.voltage            1                       # Voltage in Volts
system.clk_domain.clock                           500                       # Clock period in ticks
system.mem_ctrl.pwrStateResidencyTicks::UNDEFINED     42831000                       # Cumulative time (in ticks) in various power states
system.mem_ctrl.bytes_read::.cpu.inst           34368                       # Number of bytes read from this memory
system.mem_ctrl.bytes_read::.cpu.data           16320                       # Number of bytes read from this memory
system.mem_ctrl.bytes_read::total               50688                       # Number of bytes read from this memory
system.mem_ctrl.bytes_inst_read::.cpu.inst        34368                       # Number of instructions bytes read from this memory
system.mem_ctrl.bytes_inst_read::total          34368                       # Number of instructions bytes read from this memory
system.mem_ctrl.num_reads::.cpu.inst              537                       # Number of read requests responded to by this memory
system.mem_ctrl.num_reads::.cpu.data              255                       # Number of read requests responded to by this memory
system.mem_ctrl.num_reads::total                  792                       # Number of read requests responded to by this memory
system.mem_ctrl.bw_read::.cpu.inst          802409470                       # Total read bandwidth from this memory (bytes/s)
system.mem_ctrl.bw_read::.cpu.data          381032430                       # Total read bandwidth from this memory (bytes/s)
system.mem_ctrl.bw_read::total             1183441900                       # Total read bandwidth from this memory (bytes/s)
system.mem_ctrl.bw_inst_read::.cpu.inst     802409470                       # Instruction read bandwidth from this memory (bytes/s)
system.mem_ctrl.bw_inst_read::total         802409470                       # Instruction read bandwidth from this memory (bytes/s)
system.mem_ctrl.bw_total::.cpu.inst         802409470                       # Total bandwidth to/from this memory (bytes/s)
system.mem_ctrl.bw_total::.cpu.data         381032430                       # Total bandwidth to/from this memory (bytes/s)
system.mem_ctrl.bw_total::total            1183441900                       # Total bandwidth to/from this memory (bytes/s)
system.mem_ctrl.avgPriority_.cpu.inst::samples       537.00                       # Average QoS priority value for accepted requests
system.mem_ctrl.avgPriority_.cpu.data::samples       255.00                       # Average QoS priority value for accepted requests
system.mem_ctrl.priorityMinLatency       0.000000018750                       # per QoS priority minimum request to response latency (s)
system.mem_ctrl.priorityMaxLatency       0.000000567750                       # per QoS priority maximum request to response latency (s)
system.mem_ctrl.numReadWriteTurnArounds             0                       # Number of turnarounds from READ to WRITE
system.mem_ctrl.numWriteReadTurnArounds             0                       # Number of turnarounds from WRITE to READ
system.mem_ctrl.numStayReadState                 1556                       # Number of times bus staying in READ state
system.mem_ctrl.numStayWriteState                   0                       # Number of times bus staying in WRITE state
system.mem_ctrl.readReqs                          792                       # Number of read requests accepted
system.mem_ctrl.writeReqs                           0                       # Number of write requests accepted
system.mem_ctrl.readBursts                        792                       # Number of DRAM read bursts, including those serviced by the write queue
system.mem_ctrl.writeBursts                         0                       # Number of DRAM write bursts, including those merged in the write queue
system.mem_ctrl.bytesReadDRAM                   50688                       # Total number of bytes read from DRAM
system.mem_ctrl.bytesReadWrQ                        0                       # Total number of bytes read from write queue
system.mem_ctrl.bytesWritten                        0                       # Total number of bytes written to DRAM
system.mem_ctrl.bytesReadSys                    50688                       # Total read bytes from the system interface side
system.mem_ctrl.bytesWrittenSys                     0                       # Total written bytes from the system interface side
system.mem_ctrl.servicedByWrQ                       0                       # Number of DRAM read bursts serviced by the write queue
system.mem_ctrl.mergedWrBursts                      0                       # Number of DRAM write bursts merged with an existing one
system.mem_ctrl.neitherReadNorWriteReqs             0                       # Number of requests that are neither read nor write
system.mem_ctrl.perBankRdBursts::0                105                       # Per bank write bursts
system.mem_ctrl.perBankRdBursts::1                 29                       # Per bank write bursts
system.mem_ctrl.perBankRdBursts::2                 31                       # Per bank write bursts
system.mem_ctrl.perBankRdBursts::3                 13                       # Per bank write bursts
system.mem_ctrl.perBankRdBursts::4                 22                       # Per bank write bursts
system.mem_ctrl.perBankRdBursts::5                 13                       # Per bank write bursts
system.mem_ctrl.perBankRdBursts::6                 72                       # Per bank write bursts
system.mem_ctrl.perBankRdBursts::7                 34                       # Per bank write bursts
system.mem_ctrl.perBankRdBursts::8                  4                       # Per bank write bursts
system.mem_ctrl.perBankRdBursts::9                 30                       # Per bank write bursts
system.mem_ctrl.perBankRdBursts::10               117                       # Per bank write bursts
system.mem_ctrl.perBankRdBursts::11                60                       # Per bank write bursts
system.mem_ctrl.perBankRdBursts::12                45                       # Per bank write bursts
system.mem_ctrl.perBankRdBursts::13                66                       # Per bank write bursts
system.mem_ctrl.perBankRdBursts::14                90                       # Per bank write bursts
system.mem_ctrl.perBankRdBursts::15                61                       # Per bank write bursts
system.mem_ctrl.perBankWrBursts::0                  0                       # Per bank write bursts
system.mem_ctrl.perBankWrBursts::1                  0                       # Per bank write bursts
system.mem_ctrl.perBankWrBursts::2                  0                       # Per bank write bursts
system.mem_ctrl.perBankWrBursts::3                  0                       # Per bank write bursts
system.mem_ctrl.perBankWrBursts::4                  0                       # Per bank write bursts
system.mem_ctrl.perBankWrBursts::5                  0                       # Per bank write bursts
system.mem_ctrl.perBankWrBursts::6                  0                       # Per bank write bursts
system.mem_ctrl.perBankWrBursts::7                  0                       # Per bank write bursts
system.mem_ctrl.perBankWrBursts::8                  0                       # Per bank write bursts
system.mem_ctrl.perBankWrBursts::9                  0                       # Per bank write bursts
system.mem_ctrl.perBankWrBursts::10                 0                       # Per bank write bursts
system.mem_ctrl.perBankWrBursts::11                 0                       # Per bank write bursts
system.mem_ctrl.perBankWrBursts::12                 0                       # Per bank write bursts
system.mem_ctrl.perBankWrBursts::13                 0                       # Per bank write bursts
system.mem_ctrl.perBankWrBursts::14                 0                       # Per bank write bursts
system.mem_ctrl.perBankWrBursts::15                 0                       # Per bank write bursts
system.mem_ctrl.numRdRetry                          0                       # Number of times read queue was full causing retry
system.mem_ctrl.numWrRetry                          0                       # Number of times write queue was full causing retry
system.mem_ctrl.totGap                       42739000                       # Total gap between requests
system.mem_ctrl.readPktSize::0                      0                       # Read request sizes (log2)
system.mem_ctrl.readPktSize::1                      0                       # Read request sizes (log2)
system.mem_ctrl.readPktSize::2                      0                       # Read request sizes (log2)
system.mem_ctrl.readPktSize::3                      0                       # Read request sizes (log2)
system.mem_ctrl.readPktSize::4                      0                       # Read request sizes (log2)
system.mem_ctrl.readPktSize::5                      0                       # Read request sizes (log2)
system.mem_ctrl.readPktSize::6                    792                       # Read request sizes (log2)
system.mem_ctrl.writePktSize::0                     0                       # Write request sizes (log2)
system.mem_ctrl.writePktSize::1                     0                       # Write request sizes (log2)
system.mem_ctrl.writePktSize::2                     0                       # Write request sizes (log2)
system.mem_ctrl.writePktSize::3                     0                       # Write request sizes (log2)
system.mem_ctrl.writePktSize::4                     0                       # Write request sizes (log2)
system.mem_ctrl.writePktSize::5                     0                       # Write request sizes (log2)
system.mem_ctrl.writePktSize::6                     0                       # Write request sizes (log2)
system.mem_ctrl.rdQLenPdf::0                      466                       # What read queue length does an incoming req see
system.mem_ctrl.rdQLenPdf::1                      244                       # What read queue length does an incoming req see
system.mem_ctrl.rdQLenPdf::2                       70                       # What read queue length does an incoming req see
system.mem_ctrl.rdQLenPdf::3                       11                       # What read queue length does an incoming req see
system.mem_ctrl.rdQLenPdf::4                        1                       # What read queue length does an incoming req see
system.mem_ctrl.rdQLenPdf::5                        0                       # What read queue length does an incoming req see
system.mem_ctrl.rdQLenPdf::6                        0                       # What read queue length does an incoming req see
system.mem_ctrl.rdQLenPdf::7                        0                       # What read queue length does an incoming req see
system.mem_ctrl.rdQLenPdf::8                        0                       # What read queue length does an incoming req see
system.mem_ctrl.rdQLenPdf::9                        0                       # What read queue length does an incoming req see
system.mem_ctrl.rdQLenPdf::10                       0                       # What read queue length does an incoming req see
system.mem_ctrl.rdQLenPdf::11                       0                       # What read queue length does an incoming req see
system.mem_ctrl.rdQLenPdf::12                       0                       # What read queue length does an incoming req see
system.mem_ctrl.rdQLenPdf::13                       0                       # What read queue length does an incoming req see
system.mem_ctrl.rdQLenPdf::14                       0                       # What read queue length does an incoming req see
system.mem_ctrl.rdQLenPdf::15                       0                       # What read queue length does an incoming req see
system.mem_ctrl.rdQLenPdf::16                       0                       # What read queue length does an incoming req see
system.mem_ctrl.rdQLenPdf::17                       0                       # What read queue length does an incoming req see
system.mem_ctrl.rdQLenPdf::18                       0                       # What read queue length does an incoming req see
system.mem_ctrl.rdQLenPdf::19                       0                       # What read queue length does an incoming req see
system.mem_ctrl.rdQLenPdf::20                       0                       # What read queue length does an incoming req see
system.mem_ctrl.rdQLenPdf::21                       0                       # What read queue length does an incoming req see
system.mem_ctrl.rdQLenPdf::22                       0                       # What read queue length does an incoming req see
system.mem_ctrl.rdQLenPdf::23                       0                       # What read queue length does an incoming req see
system.mem_ctrl.rdQLenPdf::24                       0                       # What read queue length does an incoming req see
system.mem_ctrl.rdQLenPdf::25                       0                       # What read queue length does an incoming req see
system.mem_ctrl.rdQLenPdf::26                       0                       # What read queue length does an incoming req see
system.mem_ctrl.rdQLenPdf::27                       0                       # What read queue length does an incoming req see
system.mem_ctrl.rdQLenPdf::28                       0                       # What read queue length does an incoming req see
system.mem_ctrl.rdQLenPdf::29                       0                       # What read queue length does an incoming req see
system.mem_ctrl.rdQLenPdf::30                       0                       # What read queue length does an incoming req see
system.mem_ctrl.rdQLenPdf::31                       0                       # What read queue length does an incoming req see
system.mem_ctrl.wrQLenPdf::0                        0                       # What write queue length does an incoming req see
system.mem_ctrl.wrQLenPdf::1                        0                       # What write queue length does an incoming req see
system.mem_ctrl.wrQLenPdf::2                        0                       # What write queue length does an incoming req see
system.mem_ctrl.wrQLenPdf::3                        0                       # What write queue length does an incoming req see
system.mem_ctrl.wrQLenPdf::4                        0                       # What write queue length does an incoming req see
system.mem_ctrl.wrQLenPdf::5                        0                       # What write queue length does an incoming req see
system.mem_ctrl.wrQLenPdf::6                        0                       # What write queue length does an incoming req see
system.mem_ctrl.wrQLenPdf::7                        0                       # What write queue length does an incoming req see
system.mem_ctrl.wrQLenPdf::8                        0                       # What write queue length does an incoming req see
system.mem_ctrl.wrQLenPdf::9                        0                       # What write queue length does an incoming req see
system.mem_ctrl.wrQLenPdf::10                       0                       # What write queue length does an incoming req see
system.mem_ctrl.wrQLenPdf::11                       0                       # What write queue length does an incoming req see
system.mem_ctrl.wrQLenPdf::12                       0                       # What write queue length does an incoming req see
system.mem_ctrl.wrQLenPdf::13                       0                       # What write queue length does an incoming req see
system.mem_ctrl.wrQLenPdf::14                       0                       # What write queue length does an incoming req see
system.mem_ctrl.wrQLenPdf::15                       0                       # What write queue length does an incoming req see
system.mem_ctrl.wrQLenPdf::16                       0                       # What write queue length does an incoming req see
system.mem_ctrl.wrQLenPdf::17                       0                       # What write queue length does an incoming req see
system.mem_ctrl.wrQLenPdf::18                       0                       # What write queue length does an incoming req see
system.mem_ctrl.wrQLenPdf::19                       0                       # What write queue length does an incoming req see
system.mem_ctrl.wrQLenPdf::20                       0                       # What write queue length does an incoming req see
system.mem_ctrl.wrQLenPdf::21                       0                       # What write queue length does an incoming req see
system.mem_ctrl.wrQLenPdf::22                       0                       # What write queue length does an incoming req see
system.mem_ctrl.wrQLenPdf::23                       0                       # What write queue length does an incoming req see
system.mem_ctrl.wrQLenPdf::24                       0                       # What write queue length does an incoming req see
system.mem_ctrl.wrQLenPdf::25                       0                       # What write queue length does an incoming req see
system.mem_ctrl.wrQLenPdf::26                       0                       # What write queue length does an incoming req see
system.mem_ctrl.wrQLenPdf::27                       0                       # What write queue length does an incoming req see
system.mem_ctrl.wrQLenPdf::28                       0                       # What write queue length does an incoming req see
system.mem_ctrl.wrQLenPdf::29                       0                       # What write queue length does an incoming req see
system.mem_ctrl.wrQLenPdf::30                       0                       # What write queue length does an incoming req see
system.mem_ctrl.wrQLenPdf::31                       0                       # What write queue length does an incoming req see
system.mem_ctrl.wrQLenPdf::32                       0                       # What write queue length does an incoming req see
system.mem_ctrl.wrQLenPdf::33                       0                       # What write queue length does an incoming req see
system.mem_ctrl.wrQLenPdf::34                       0                       # What write queue length does an incoming req see
system.mem_ctrl.wrQLenPdf::35                       0                       # What write queue length does an incoming req see
system.mem_ctrl.wrQLenPdf::36                       0                       # What write queue length does an incoming req see
system.mem_ctrl.wrQLenPdf::37                       0                       # What write queue length does an incoming req see
system.mem_ctrl.wrQLenPdf::38                       0                       # What write queue length does an incoming req see
system.mem_ctrl.wrQLenPdf::39                       0                       # What write queue length does an incoming req see
system.mem_ctrl.wrQLenPdf::40                       0                       # What write queue length does an incoming req see
system.mem_ctrl.wrQLenPdf::41                       0                       # What write queue length does an incoming req see
system.mem_ctrl.wrQLenPdf::42                       0                       # What write queue length does an incoming req see
system.mem_ctrl.wrQLenPdf::43                       0                       # What write queue length does an incoming req see
system.mem_ctrl.wrQLenPdf::44                       0                       # What write queue length does an incoming req see
system.mem_ctrl.wrQLenPdf::45                       0                       # What write queue length does an incoming req see
system.mem_ctrl.wrQLenPdf::46                       0                       # What write queue length does an incoming req see
system.mem_ctrl.wrQLenPdf::47                       0                       # What write queue length does an incoming req see
system.mem_ctrl.wrQLenPdf::48                       0                       # What write queue length does an incoming req see
system.mem_ctrl.wrQLenPdf::49                       0                       # What write queue length does an incoming req see
system.mem_ctrl.wrQLenPdf::50                       0                       # What write queue length does an incoming req see
system.mem_ctrl.wrQLenPdf::51                       0                       # What write queue length does an incoming req see
system.mem_ctrl.wrQLenPdf::52                       0                       # What write queue length does an incoming req see
system.mem_ctrl.wrQLenPdf::53                       0                       # What write queue length does an incoming req see
system.mem_ctrl.wrQLenPdf::54                       0                       # What write queue length does an incoming req see
system.mem_ctrl.wrQLenPdf::55                       0                       # What write queue length does an incoming req see
system.mem_ctrl.wrQLenPdf::56                       0                       # What write queue length does an incoming req see
system.mem_ctrl.wrQLenPdf::57                       0                       # What write queue length does an incoming req see
system.mem_ctrl.wrQLenPdf::58                       0                       # What write queue length does an incoming req see
system.mem_ctrl.wrQLenPdf::59                       0                       # What write queue length does an incoming req see
system.mem_ctrl.wrQLenPdf::60                       0                       # What write queue length does an incoming req see
system.mem_ctrl.wrQLenPdf::61                       0                       # What write queue length does an incoming req see
system.mem_ctrl.wrQLenPdf::62                       0                       # What write queue length does an incoming req see
system.mem_ctrl.wrQLenPdf::63                       0                       # What write queue length does an incoming req see
system.mem_ctrl.bytesPerActivate::samples          158                       # Bytes accessed per row activation
system.mem_ctrl.bytesPerActivate::mean     312.303797                       # Bytes accessed per row activation
system.mem_ctrl.bytesPerActivate::gmean    203.386572                       # Bytes accessed per row activation
system.mem_ctrl.bytesPerActivate::stdev    292.202720                       # Bytes accessed per row activation
system.mem_ctrl.bytesPerActivate::0-127            44     27.85%     27.85% # Bytes accessed per row activation
system.mem_ctrl.bytesPerActivate::128-255           41     25.95%     53.80% # Bytes accessed per row activation
system.mem_ctrl.bytesPerActivate::256-383           22     13.92%     67.72% # Bytes accessed per row activation
system.mem_ctrl.bytesPerActivate::384-511           17     10.76%     78.48% # Bytes accessed per row activation
system.mem_ctrl.bytesPerActivate::512-639            7      4.43%     82.91% # Bytes accessed per row activation
system.mem_ctrl.bytesPerActivate::640-767            8      5.06%     87.97% # Bytes accessed per row activation
system.mem_ctrl.bytesPerActivate::768-895            3      1.90%     89.87% # Bytes accessed per row activation
system.mem_ctrl.bytesPerActivate::896-1023            6      3.80%     93.67% # Bytes accessed per row activation
system.mem_ctrl.bytesPerActivate::1024-1151           10      6.33%    100.00% # Bytes accessed per row activation
system.mem_ctrl.bytesPerActivate::total           158                       # Bytes accessed per row activation
system.mem_ctrl.masterReadBytes::.cpu.inst        34368                       # Per-master bytes read from memory
system.mem_ctrl.masterReadBytes::.cpu.data        16320                       # Per-master bytes read from memory
system.mem_ctrl.masterReadRate::.cpu.inst 802409469.776563763618                       # Per-master bytes read from memory rate (Bytes/sec)
system.mem_ctrl.masterReadRate::.cpu.data 381032429.782167136669                       # Per-master bytes read from memory rate (Bytes/sec)
system.mem_ctrl.masterReadAccesses::.cpu.inst          537                       # Per-master read serviced memory accesses
system.mem_ctrl.masterReadAccesses::.cpu.data          255                       # Per-master read serviced memory accesses
system.mem_ctrl.masterReadTotalLat::.cpu.inst     17510750                       # Per-master read total memory access latency
system.mem_ctrl.masterReadTotalLat::.cpu.data      8302000                       # Per-master read total memory access latency
system.mem_ctrl.masterReadAvgLat::.cpu.inst     32608.47                       # Per-master read average memory access latency
system.mem_ctrl.masterReadAvgLat::.cpu.data     32556.86                       # Per-master read average memory access latency
system.mem_ctrl.totQLat                      10962750                       # Total ticks spent queuing
system.mem_ctrl.totMemAccLat                 25812750                       # Total ticks spent from burst creation until serviced by the DRAM
system.mem_ctrl.totBusLat                     3960000                       # Total ticks spent in databus transfers
system.mem_ctrl.avgQLat                      13841.86                       # Average queueing delay per DRAM burst
system.mem_ctrl.avgBusLat                     5000.00                       # Average bus latency per DRAM burst
system.mem_ctrl.avgMemAccLat                 32591.86                       # Average memory access latency per DRAM burst
system.mem_ctrl.avgRdBW                       1183.44                       # Average DRAM read bandwidth in MiByte/s
system.mem_ctrl.avgWrBW                          0.00                       # Average achieved write bandwidth in MiByte/s
system.mem_ctrl.avgRdBWSys                    1183.44                       # Average system read bandwidth in MiByte/s
system.mem_ctrl.avgWrBWSys                       0.00                       # Average system write bandwidth in MiByte/s
system.mem_ctrl.peakBW                       12800.00                       # Theoretical peak bandwidth in MiByte/s
system.mem_ctrl.busUtil                          9.25                       # Data bus utilization in percentage
system.mem_ctrl.busUtilRead                      9.25                       # Data bus utilization in percentage for reads
system.mem_ctrl.busUtilWrite                     0.00                       # Data bus utilization in percentage for writes
system.mem_ctrl.avgRdQLen                        1.64                       # Average read queue length when enqueuing
system.mem_ctrl.avgWrQLen                        0.00                       # Average write queue length when enqueuing
system.mem_ctrl.readRowHits                       626                       # Number of row buffer hits during reads
system.mem_ctrl.writeRowHits                        0                       # Number of row buffer hits during writes
system.mem_ctrl.readRowHitRate                  79.04                       # Row buffer hit rate for reads
system.mem_ctrl.writeRowHitRate                   nan                       # Row buffer hit rate for writes
system.mem_ctrl.avgGap                       53963.38                       # Average gap between requests
system.mem_ctrl.pageHitRate                     79.04                       # Row buffer hit rate, read and write combined
system.mem_ctrl_0.actEnergy                    428400                       # Energy for activate commands per rank (pJ)
system.mem_ctrl_0.preEnergy                    212520                       # Energy for precharge commands per rank (pJ)
system.mem_ctrl_0.readEnergy                  2277660                       # Energy for read commands per rank (pJ)
system.mem_ctrl_0.writeEnergy                       0                       # Energy for write commands per rank (pJ)
system.mem_ctrl_0.refreshEnergy          3073200.000000                       # Energy for refresh commands per rank (pJ)
system.mem_ctrl_0.actBackEnergy               4100010                       # Energy for active background per rank (pJ)
system.mem_ctrl_0.preBackEnergy                 74880                       # Energy for precharge background per rank (pJ)
system.mem_ctrl_0.actPowerDownEnergy         14875860                       # Energy for active power-down per rank (pJ)
system.mem_ctrl_0.prePowerDownEnergy           392640                       # Energy for precharge power-down per rank (pJ)
system.mem_ctrl_0.selfRefreshEnergy                 0                       # Energy for self refresh per rank (pJ)
system.mem_ctrl_0.totalEnergy                25435170                       # Total energy per rank (pJ)
system.mem_ctrl_0.averagePower             593.849548                       # Core power per rank (mW)
system.mem_ctrl_0.totalIdleTime              33604250                       # Total Idle time Per DRAM Rank
system.mem_ctrl_0.memoryStateTime::IDLE         42500                       # Time in different power states
system.mem_ctrl_0.memoryStateTime::REF        1300000                       # Time in different power states
system.mem_ctrl_0.memoryStateTime::SREF             0                       # Time in different power states
system.mem_ctrl_0.memoryStateTime::PRE_PDN      1023000                       # Time in different power states
system.mem_ctrl_0.memoryStateTime::ACT        7835500                       # Time in different power states
system.mem_ctrl_0.memoryStateTime::ACT_PDN     32630000                       # Time in different power states
system.mem_ctrl_1.actEnergy                    756840                       # Energy for activate commands per rank (pJ)
system.mem_ctrl_1.preEnergy                    387090                       # Energy for precharge commands per rank (pJ)
system.mem_ctrl_1.readEnergy                  3377220                       # Energy for read commands per rank (pJ)
system.mem_ctrl_1.writeEnergy                       0                       # Energy for write commands per rank (pJ)
system.mem_ctrl_1.refreshEnergy          3073200.000000                       # Energy for refresh commands per rank (pJ)
system.mem_ctrl_1.actBackEnergy               5660670                       # Energy for active background per rank (pJ)
system.mem_ctrl_1.preBackEnergy                140160                       # Energy for precharge background per rank (pJ)
system.mem_ctrl_1.actPowerDownEnergy         12762870                       # Energy for active power-down per rank (pJ)
system.mem_ctrl_1.prePowerDownEnergy           792480                       # Energy for precharge power-down per rank (pJ)
system.mem_ctrl_1.selfRefreshEnergy                 0                       # Energy for self refresh per rank (pJ)
system.mem_ctrl_1.totalEnergy                26950530                       # Total energy per rank (pJ)
system.mem_ctrl_1.averagePower             629.229530                       # Core power per rank (mW)
system.mem_ctrl_1.totalIdleTime              29887000                       # Total Idle time Per DRAM Rank
system.mem_ctrl_1.memoryStateTime::IDLE        130000                       # Time in different power states
system.mem_ctrl_1.memoryStateTime::REF        1300000                       # Time in different power states
system.mem_ctrl_1.memoryStateTime::SREF             0                       # Time in different power states
system.mem_ctrl_1.memoryStateTime::PRE_PDN      2063500                       # Time in different power states
system.mem_ctrl_1.memoryStateTime::ACT       11352750                       # Time in different power states
system.mem_ctrl_1.memoryStateTime::ACT_PDN     27984750                       # Time in different power states
system.pwrStateResidencyTicks::UNDEFINED     42831000                       # Cumulative time (in ticks) in various power states
system.cpu.branchPred.lookups                    5913                       # Number of BP lookups
system.cpu.branchPred.condPredicted              5913                       # Number of conditional branches predicted
system.cpu.branchPred.condIncorrect               935                       # Number of conditional branches incorrect
system.cpu.branchPred.BTBLookups                 5360                       # Number of BTB lookups
system.cpu.branchPred.BTBHits                       0                       # Number of BTB hits
system.cpu.branchPred.BTBCorrect                    0                       # Number of correct BTB predictions (this stat may not work properly.
system.cpu.branchPred.BTBHitPct              0.000000                       # BTB Hit Percentage
system.cpu.branchPred.usedRAS                     454                       # Number of times the RAS was used to get a target.
system.cpu.branchPred.RASInCorrect                146                       # Number of incorrect RAS predictions.
system.cpu.branchPred.indirectLookups            5360                       # Number of indirect predictor lookups.
system.cpu.branchPred.indirectHits                618                       # Number of indirect target hits.
system.cpu.branchPred.indirectMisses             4742                       # Number of indirect misses.
system.cpu.branchPredindirectMispredicted          743                       # Number of mispredicted indirect branches.
system.cpu.dtb.walker.pwrStateResidencyTicks::UNDEFINED     42831000                       # Cumulative time (in ticks) in various power states
system.cpu.dtb.rdAccesses                        2570                       # TLB accesses on read requests
system.cpu.dtb.wrAccesses                        1991                       # TLB accesses on write requests
system.cpu.dtb.rdMisses                           123                       # TLB misses on read requests
system.cpu.dtb.wrMisses                            34                       # TLB misses on write requests
system.cpu.apic_clk_domain.clock                 8000                       # Clock period in ticks
system.cpu.interrupts.pwrStateResidencyTicks::UNDEFINED     42831000                       # Cumulative time (in ticks) in various power states
system.cpu.itb.walker.pwrStateResidencyTicks::UNDEFINED     42831000                       # Cumulative time (in ticks) in various power states
system.cpu.itb.rdAccesses                           0                       # TLB accesses on read requests
system.cpu.itb.wrAccesses                        3507                       # TLB accesses on write requests
system.cpu.itb.rdMisses                             0                       # TLB misses on read requests
system.cpu.itb.wrMisses                           156                       # TLB misses on write requests
system.cpu.workload.numSyscalls                    11                       # Number of system calls
system.cpu.pwrStateResidencyTicks::ON        42831000                       # Cumulative time (in ticks) in various power states
system.cpu.numCycles                            85663                       # number of cpu cycles simulated
system.cpu.numWorkItemsStarted                      0                       # number of work items this cpu started
system.cpu.numWorkItemsCompleted                    0                       # number of work items this cpu completed
system.cpu.fetch.icacheStallCycles              33366                       # Number of cycles fetch is stalled on an Icache miss
system.cpu.fetch.Insts                          26230                       # Number of instructions fetch has processed
system.cpu.fetch.Branches                        5913                       # Number of branches that fetch encountered
system.cpu.fetch.predictedBranches               1072                       # Number of branches that fetch has predicted taken
system.cpu.fetch.Cycles                         26743                       # Number of cycles fetch has run and was not squashing or blocked
system.cpu.fetch.SquashCycles                    2026                       # Number of cycles fetch has spent squashing
system.cpu.fetch.MiscStallCycles                   80                       # Number of cycles fetch has spent waiting on interrupts, or bad addresses, or out of MSHRs
system.cpu.fetch.PendingTrapStallCycles          1012                       # Number of stall cycles due to pending traps
system.cpu.fetch.PendingQuiesceStallCycles           24                       # Number of stall cycles due to pending quiesce instructions
system.cpu.fetch.CacheLines                      3400                       # Number of cache lines fetched
system.cpu.fetch.IcacheSquashes                   353                       # Number of outstanding Icache misses that were squashed
system.cpu.fetch.rateDist::samples              62238                       # Number of instructions fetched each cycle (Total)
system.cpu.fetch.rateDist::mean              0.850686                       # Number of instructions fetched each cycle (Total)
system.cpu.fetch.rateDist::stdev             1.602101                       # Number of instructions fetched each cycle (Total)
system.cpu.fetch.rateDist::underflows               0      0.00%      0.00% # Number of instructions fetched each cycle (Total)
system.cpu.fetch.rateDist::0                    47955     77.05%     77.05% # Number of instructions fetched each cycle (Total)
system.cpu.fetch.rateDist::1                      680      1.09%     78.14% # Number of instructions fetched each cycle (Total)
system.cpu.fetch.rateDist::2                      743      1.19%     79.34% # Number of instructions fetched each cycle (Total)
system.cpu.fetch.rateDist::3                      661      1.06%     80.40% # Number of instructions fetched each cycle (Total)
system.cpu.fetch.rateDist::4                    12199     19.60%    100.00% # Number of instructions fetched each cycle (Total)
system.cpu.fetch.rateDist::overflows                0      0.00%    100.00% # Number of instructions fetched each cycle (Total)
system.cpu.fetch.rateDist::min_value                0                       # Number of instructions fetched each cycle (Total)
system.cpu.fetch.rateDist::max_value                4                       # Number of instructions fetched each cycle (Total)
system.cpu.fetch.rateDist::total                62238                       # Number of instructions fetched each cycle (Total)
system.cpu.fetch.branchRate                  0.069026                       # Number of branch fetches per cycle
system.cpu.fetch.rate                        0.306200                       # Number of inst fetches per cycle
system.cpu.decode.IdleCycles                    32275                       # Number of cycles decode is idle
system.cpu.decode.BlockedCycles                 16608                       # Number of cycles decode is blocked
system.cpu.decode.RunCycles                     11712                       # Number of cycles decode is running
system.cpu.decode.UnblockCycles                   630                       # Number of cycles decode is unblocking
system.cpu.decode.SquashCycles                   1013                       # Number of cycles decode is squashing
system.cpu.decode.DecodedInsts                  43862                       # Number of instructions handled by decode
system.cpu.decode.SquashedInsts                  3233                       # Number of squashed instructions handled by decode
system.cpu.rename.SquashCycles                   1013                       # Number of cycles rename is squashing
system.cpu.rename.IdleCycles                    33978                       # Number of cycles rename is idle
system.cpu.rename.BlockCycles                    5412                       # Number of cycles rename is blocking
system.cpu.rename.serializeStallCycles           1997                       # count of cycles rename stalled for serializing inst
system.cpu.rename.RunCycles                     10600                       # Number of cycles rename is running
system.cpu.rename.UnblockCycles                  9238                       # Number of cycles rename is unblocking
system.cpu.rename.RenamedInsts                  39982                       # Number of instructions processed by rename
system.cpu.rename.SquashedInsts                  1483                       # Number of squashed instructions processed by rename
system.cpu.rename.ROBFullEvents                    29                       # Number of times rename has blocked due to ROB full
system.cpu.rename.IQFullEvents                    147                       # Number of times rename has blocked due to IQ full
system.cpu.rename.SQFullEvents                   8768                       # Number of times rename has blocked due to SQ full
system.cpu.rename.FullRegisterEvents              110                       # Number of times there has been no free registers
system.cpu.rename.RenamedOperands               42826                       # Number of destination operands rename has renamed
system.cpu.rename.RenameLookups                 97632                       # Number of register rename lookups that rename has made
system.cpu.rename.int_rename_lookups            55058                       # Number of integer rename lookups
system.cpu.rename.fp_rename_lookups              4075                       # Number of floating rename lookups
system.cpu.rename.CommittedMaps                 16825                       # Number of HB maps that are committed
system.cpu.rename.UndoneMaps                    26001                       # Number of HB maps that are undone due to squashing
system.cpu.rename.serializingInsts                 30                       # count of serializing insts renamed
system.cpu.rename.tempSerializingInsts             27                       # count of temporary serializing insts renamed
system.cpu.rename.skidInsts                      2246                       # count of insts added to the skid buffer
system.cpu.memDep0.insertedLoads                 3998                       # Number of loads inserted to the mem dependence unit.
system.cpu.memDep0.insertedStores                3192                       # Number of stores inserted to the mem dependence unit.
system.cpu.memDep0.conflictingLoads                33                       # Number of conflicting loads.
system.cpu.memDep0.conflictingStores               66                       # Number of conflicting stores.
system.cpu.iq.iqInstsAdded                      36525                       # Number of instructions added to the IQ (excludes non-spec)
system.cpu.iq.iqNonSpecInstsAdded                 103                       # Number of non-speculative instructions added to the IQ
system.cpu.iq.iqInstsIssued                     27122                       # Number of instructions issued
system.cpu.iq.iqSquashedInstsIssued              2218                       # Number of squashed instructions issued
system.cpu.iq.iqSquashedInstsExamined           21013                       # Number of squashed instructions iterated over during squash; mainly for profiling
system.cpu.iq.iqSquashedOperandsExamined        32750                       # Number of squashed operands that are examined and possibly removed from graph
system.cpu.iq.iqSquashedNonSpecRemoved             92                       # Number of squashed non-spec instructions that were removed
system.cpu.iq.issued_per_cycle::samples         62238                       # Number of insts issued each cycle
system.cpu.iq.issued_per_cycle::mean         0.435779                       # Number of insts issued each cycle
system.cpu.iq.issued_per_cycle::stdev        0.912049                       # Number of insts issued each cycle
system.cpu.iq.issued_per_cycle::underflows            0      0.00%      0.00% # Number of insts issued each cycle
system.cpu.iq.issued_per_cycle::0               49174     79.01%     79.01% # Number of insts issued each cycle
system.cpu.iq.issued_per_cycle::1                2956      4.75%     83.76% # Number of insts issued each cycle
system.cpu.iq.issued_per_cycle::2                6384     10.26%     94.02% # Number of insts issued each cycle
system.cpu.iq.issued_per_cycle::3                3498      5.62%     99.64% # Number of insts issued each cycle
system.cpu.iq.issued_per_cycle::4                 226      0.36%    100.00% # Number of insts issued each cycle
system.cpu.iq.issued_per_cycle::overflows            0      0.00%    100.00% # Number of insts issued each cycle
system.cpu.iq.issued_per_cycle::min_value            0                       # Number of insts issued each cycle
system.cpu.iq.issued_per_cycle::max_value            4                       # Number of insts issued each cycle
system.cpu.iq.issued_per_cycle::total           62238                       # Number of insts issued each cycle
system.cpu.iq.fu_full::No_OpClass                   0      0.00%      0.00% # attempts to use FU when none available
system.cpu.iq.fu_full::IntAlu                    6114     76.95%     76.95% # attempts to use FU when none available
system.cpu.iq.fu_full::IntMult                      0      0.00%     76.95% # attempts to use FU when none available
system.cpu.iq.fu_full::IntDiv                       0      0.00%     76.95% # attempts to use FU when none available
system.cpu.iq.fu_full::FloatAdd                     0      0.00%     76.95% # attempts to use FU when none available
system.cpu.iq.fu_full::FloatCmp                     0      0.00%     76.95% # attempts to use FU when none available
system.cpu.iq.fu_full::FloatCvt                     0      0.00%     76.95% # attempts to use FU when none available
system.cpu.iq.fu_full::FloatMult                    0      0.00%     76.95% # attempts to use FU when none available
system.cpu.iq.fu_full::FloatMultAcc                 0      0.00%     76.95% # attempts to use FU when none available
system.cpu.iq.fu_full::FloatDiv                     0      0.00%     76.95% # attempts to use FU when none available
system.cpu.iq.fu_full::FloatMisc                    0      0.00%     76.95% # attempts to use FU when none available
system.cpu.iq.fu_full::FloatSqrt                    0      0.00%     76.95% # attempts to use FU when none available
system.cpu.iq.fu_full::SimdAdd                    269      3.39%     80.34% # attempts to use FU when none available
system.cpu.iq.fu_full::SimdAddAcc                   0      0.00%     80.34% # attempts to use FU when none available
system.cpu.iq.fu_full::SimdAlu                     69      0.87%     81.21% # attempts to use FU when none available
system.cpu.iq.fu_full::SimdCmp                      0      0.00%     81.21% # attempts to use FU when none available
system.cpu.iq.fu_full::SimdCvt                     37      0.47%     81.67% # attempts to use FU when none available
system.cpu.iq.fu_full::SimdMisc                   133      1.67%     83.35% # attempts to use FU when none available
system.cpu.iq.fu_full::SimdMult                     0      0.00%     83.35% # attempts to use FU when none available
system.cpu.iq.fu_full::SimdMultAcc                  0      0.00%     83.35% # attempts to use FU when none available
system.cpu.iq.fu_full::SimdShift                  124      1.56%     84.91% # attempts to use FU when none available
system.cpu.iq.fu_full::SimdShiftAcc                 0      0.00%     84.91% # attempts to use FU when none available
system.cpu.iq.fu_full::SimdSqrt                     0      0.00%     84.91% # attempts to use FU when none available
system.cpu.iq.fu_full::SimdFloatAdd                 0      0.00%     84.91% # attempts to use FU when none available
system.cpu.iq.fu_full::SimdFloatAlu                 0      0.00%     84.91% # attempts to use FU when none available
system.cpu.iq.fu_full::SimdFloatCmp                 0      0.00%     84.91% # attempts to use FU when none available
system.cpu.iq.fu_full::SimdFloatCvt                 0      0.00%     84.91% # attempts to use FU when none available
system.cpu.iq.fu_full::SimdFloatDiv                 0      0.00%     84.91% # attempts to use FU when none available
system.cpu.iq.fu_full::SimdFloatMisc                0      0.00%     84.91% # attempts to use FU when none available
system.cpu.iq.fu_full::SimdFloatMult                0      0.00%     84.91% # attempts to use FU when none available
system.cpu.iq.fu_full::SimdFloatMultAcc             0      0.00%     84.91% # attempts to use FU when none available
system.cpu.iq.fu_full::SimdFloatSqrt                0      0.00%     84.91% # attempts to use FU when none available
system.cpu.iq.fu_full::SimdAes                      0      0.00%     84.91% # attempts to use FU when none available
system.cpu.iq.fu_full::SimdAesMix                   0      0.00%     84.91% # attempts to use FU when none available
system.cpu.iq.fu_full::SimdSha1Hash                 0      0.00%     84.91% # attempts to use FU when none available
system.cpu.iq.fu_full::SimdSha1Hash2                0      0.00%     84.91% # attempts to use FU when none available
system.cpu.iq.fu_full::SimdSha256Hash               0      0.00%     84.91% # attempts to use FU when none available
system.cpu.iq.fu_full::SimdSha256Hash2              0      0.00%     84.91% # attempts to use FU when none available
system.cpu.iq.fu_full::SimdShaSigma2                0      0.00%     84.91% # attempts to use FU when none available
system.cpu.iq.fu_full::SimdShaSigma3                0      0.00%     84.91% # attempts to use FU when none available
system.cpu.iq.fu_full::MemRead                    874     11.00%     95.91% # attempts to use FU when none available
system.cpu.iq.fu_full::MemWrite                   325      4.09%    100.00% # attempts to use FU when none available
system.cpu.iq.fu_full::FloatMemRead                 0      0.00%    100.00% # attempts to use FU when none available
system.cpu.iq.fu_full::FloatMemWrite                0      0.00%    100.00% # attempts to use FU when none available
system.cpu.iq.fu_full::IprAccess                    0      0.00%    100.00% # attempts to use FU when none available
system.cpu.iq.fu_full::InstPrefetch                 0      0.00%    100.00% # attempts to use FU when none available
system.cpu.iq.FU_type_0::No_OpClass               437      1.61%      1.61% # Type of FU issued
system.cpu.iq.FU_type_0::IntAlu                 20473     75.48%     77.10% # Type of FU issued
system.cpu.iq.FU_type_0::IntMult                    4      0.01%     77.11% # Type of FU issued
system.cpu.iq.FU_type_0::IntDiv                    31      0.11%     77.23% # Type of FU issued
system.cpu.iq.FU_type_0::FloatAdd                  15      0.06%     77.28% # Type of FU issued
system.cpu.iq.FU_type_0::FloatCmp                   0      0.00%     77.28% # Type of FU issued
system.cpu.iq.FU_type_0::FloatCvt                   0      0.00%     77.28% # Type of FU issued
system.cpu.iq.FU_type_0::FloatMult                  0      0.00%     77.28% # Type of FU issued
system.cpu.iq.FU_type_0::FloatMultAcc               0      0.00%     77.28% # Type of FU issued
system.cpu.iq.FU_type_0::FloatDiv                   0      0.00%     77.28% # Type of FU issued
system.cpu.iq.FU_type_0::FloatMisc                  0      0.00%     77.28% # Type of FU issued
system.cpu.iq.FU_type_0::FloatSqrt                  0      0.00%     77.28% # Type of FU issued
system.cpu.iq.FU_type_0::SimdAdd                  378      1.39%     78.67% # Type of FU issued
system.cpu.iq.FU_type_0::SimdAddAcc                 0      0.00%     78.67% # Type of FU issued
system.cpu.iq.FU_type_0::SimdAlu                   92      0.34%     79.01% # Type of FU issued
system.cpu.iq.FU_type_0::SimdCmp                    0      0.00%     79.01% # Type of FU issued
system.cpu.iq.FU_type_0::SimdCvt                  130      0.48%     79.49% # Type of FU issued
system.cpu.iq.FU_type_0::SimdMisc                 241      0.89%     80.38% # Type of FU issued
system.cpu.iq.FU_type_0::SimdMult                   0      0.00%     80.38% # Type of FU issued
system.cpu.iq.FU_type_0::SimdMultAcc                0      0.00%     80.38% # Type of FU issued
system.cpu.iq.FU_type_0::SimdShift                186      0.69%     81.07% # Type of FU issued
system.cpu.iq.FU_type_0::SimdShiftAcc               0      0.00%     81.07% # Type of FU issued
system.cpu.iq.FU_type_0::SimdSqrt                   0      0.00%     81.07% # Type of FU issued
system.cpu.iq.FU_type_0::SimdFloatAdd               0      0.00%     81.07% # Type of FU issued
system.cpu.iq.FU_type_0::SimdFloatAlu               0      0.00%     81.07% # Type of FU issued
system.cpu.iq.FU_type_0::SimdFloatCmp               0      0.00%     81.07% # Type of FU issued
system.cpu.iq.FU_type_0::SimdFloatCvt               0      0.00%     81.07% # Type of FU issued
system.cpu.iq.FU_type_0::SimdFloatDiv               0      0.00%     81.07% # Type of FU issued
system.cpu.iq.FU_type_0::SimdFloatMisc              0      0.00%     81.07% # Type of FU issued
system.cpu.iq.FU_type_0::SimdFloatMult              0      0.00%     81.07% # Type of FU issued
system.cpu.iq.FU_type_0::SimdFloatMultAcc            0      0.00%     81.07% # Type of FU issued
system.cpu.iq.FU_type_0::SimdFloatSqrt              0      0.00%     81.07% # Type of FU issued
system.cpu.iq.FU_type_0::SimdAes                    0      0.00%     81.07% # Type of FU issued
system.cpu.iq.FU_type_0::SimdAesMix                 0      0.00%     81.07% # Type of FU issued
system.cpu.iq.FU_type_0::SimdSha1Hash               0      0.00%     81.07% # Type of FU issued
system.cpu.iq.FU_type_0::SimdSha1Hash2              0      0.00%     81.07% # Type of FU issued
system.cpu.iq.FU_type_0::SimdSha256Hash             0      0.00%     81.07% # Type of FU issued
system.cpu.iq.FU_type_0::SimdSha256Hash2            0      0.00%     81.07% # Type of FU issued
system.cpu.iq.FU_type_0::SimdShaSigma2              0      0.00%     81.07% # Type of FU issued
system.cpu.iq.FU_type_0::SimdShaSigma3              0      0.00%     81.07% # Type of FU issued
system.cpu.iq.FU_type_0::MemRead                 2824     10.41%     91.48% # Type of FU issued
system.cpu.iq.FU_type_0::MemWrite                1758      6.48%     97.96% # Type of FU issued
system.cpu.iq.FU_type_0::FloatMemRead             109      0.40%     98.36% # Type of FU issued
system.cpu.iq.FU_type_0::FloatMemWrite            444      1.64%    100.00% # Type of FU issued
system.cpu.iq.FU_type_0::IprAccess                  0      0.00%    100.00% # Type of FU issued
system.cpu.iq.FU_type_0::InstPrefetch               0      0.00%    100.00% # Type of FU issued
system.cpu.iq.FU_type_0::total                  27122                       # Type of FU issued
system.cpu.iq.rate                           0.316613                       # Inst issue rate
system.cpu.iq.fu_busy_cnt                        7945                       # FU busy when requested
system.cpu.iq.fu_busy_rate                   0.292936                       # FU busy rate (busy events/executed inst)
system.cpu.iq.int_inst_queue_reads             121679                       # Number of integer instruction queue reads
system.cpu.iq.int_inst_queue_writes             55352                       # Number of integer instruction queue writes
system.cpu.iq.int_inst_queue_wakeup_accesses        22027                       # Number of integer instruction queue wakeup accesses
system.cpu.iq.fp_inst_queue_reads                4966                       # Number of floating instruction queue reads
system.cpu.iq.fp_inst_queue_writes               2295                       # Number of floating instruction queue writes
system.cpu.iq.fp_inst_queue_wakeup_accesses         2085                       # Number of floating instruction queue wakeup accesses
system.cpu.iq.vec_inst_queue_reads                  0                       # Number of vector instruction queue reads
system.cpu.iq.vec_inst_queue_writes                 0                       # Number of vector instruction queue writes
system.cpu.iq.vec_inst_queue_wakeup_accesses            0                       # Number of vector instruction queue wakeup accesses
system.cpu.iq.int_alu_accesses                  31787                       # Number of integer alu accesses
system.cpu.iq.fp_alu_accesses                    2843                       # Number of floating point alu accesses
system.cpu.iq.vec_alu_accesses                      0                       # Number of vector alu accesses
system.cpu.iew.lsq.thread0.forwLoads               68                       # Number of loads that had data forwarded from stores
system.cpu.iew.lsq.thread0.invAddrLoads             0                       # Number of loads ignored due to an invalid address
system.cpu.iew.lsq.thread0.squashedLoads         2527                       # Number of loads squashed
system.cpu.iew.lsq.thread0.ignoredResponses            4                       # Number of memory responses ignored because the instruction is squashed
system.cpu.iew.lsq.thread0.memOrderViolation            6                       # Number of memory ordering violations
system.cpu.iew.lsq.thread0.squashedStores         1657                       # Number of stores squashed
system.cpu.iew.lsq.thread0.invAddrSwpfs             0                       # Number of software prefetches ignored due to an invalid address
system.cpu.iew.lsq.thread0.blockedLoads             0                       # Number of blocked loads due to partial load-store forwarding
system.cpu.iew.lsq.thread0.rescheduledLoads            1                       # Number of loads that were rescheduled
system.cpu.iew.lsq.thread0.cacheBlocked            12                       # Number of times an access to memory failed due to the cache being blocked
system.cpu.iew.iewIdleCycles                        0                       # Number of cycles IEW is idle
system.cpu.iew.iewSquashCycles                   1013                       # Number of cycles IEW is squashing
system.cpu.iew.iewBlockCycles                    1146                       # Number of cycles IEW is blocking
system.cpu.iew.iewUnblockCycles                  1883                       # Number of cycles IEW is unblocking
system.cpu.iew.iewDispatchedInsts               36628                       # Number of instructions dispatched to IQ
system.cpu.iew.iewDispSquashedInsts               232                       # Number of squashed instructions skipped by dispatch
system.cpu.iew.iewDispLoadInsts                  3998                       # Number of dispatched load instructions
system.cpu.iew.iewDispStoreInsts                 3192                       # Number of dispatched store instructions
system.cpu.iew.iewDispNonSpecInsts                 48                       # Number of dispatched non-speculative instructions
system.cpu.iew.iewIQFullEvents                      5                       # Number of times the IQ has become full, causing a stall
system.cpu.iew.iewLSQFullEvents                  1869                       # Number of times the LSQ has become full, causing a stall
system.cpu.iew.memOrderViolationEvents              6                       # Number of memory order violations
system.cpu.iew.predictedTakenIncorrect            190                       # Number of branches that were predicted taken incorrectly
system.cpu.iew.predictedNotTakenIncorrect         1022                       # Number of branches that were predicted not taken incorrectly
system.cpu.iew.branchMispredicts                 1212                       # Number of branch mispredicts detected at execute
system.cpu.iew.iewExecutedInsts                 24716                       # Number of executed instructions
system.cpu.iew.iewExecLoadInsts                  2562                       # Number of load instructions executed
system.cpu.iew.iewExecSquashedInsts              2406                       # Number of squashed instructions skipped in execute
system.cpu.iew.exec_swp                             0                       # number of swp insts executed
system.cpu.iew.exec_nop                             0                       # number of nop insts executed
system.cpu.iew.exec_refs                         4553                       # number of memory reference insts executed
system.cpu.iew.exec_branches                     2180                       # Number of branches executed
system.cpu.iew.exec_stores                       1991                       # Number of stores executed
system.cpu.iew.exec_rate                     0.288526                       # Inst execution rate
system.cpu.iew.wb_sent                          24403                       # cumulative count of insts sent to commit
system.cpu.iew.wb_count                         24112                       # cumulative count of insts written-back
system.cpu.iew.wb_producers                     17051                       # num instructions producing a value
system.cpu.iew.wb_consumers                     27136                       # num instructions consuming a value
system.cpu.iew.wb_rate                       0.281475                       # insts written-back per cycle
system.cpu.iew.wb_fanout                     0.628353                       # average fanout of values written-back
system.cpu.commit.commitSquashedInsts           19172                       # The number of squashed insts skipped by commit
system.cpu.commit.commitNonSpecStalls              11                       # The number of times commit has been forced to stall to communicate backwards
system.cpu.commit.branchMispredicts              1007                       # The number of times a branch was mispredicted
system.cpu.commit.committed_per_cycle::samples        60285                       # Number of insts commited each cycle
system.cpu.commit.committed_per_cycle::mean     0.259003                       # Number of insts commited each cycle
system.cpu.commit.committed_per_cycle::stdev     0.821263                       # Number of insts commited each cycle
system.cpu.commit.committed_per_cycle::underflows            0      0.00%      0.00% # Number of insts commited each cycle
system.cpu.commit.committed_per_cycle::0        53263     88.35%     88.35% # Number of insts commited each cycle
system.cpu.commit.committed_per_cycle::1         2824      4.68%     93.04% # Number of insts commited each cycle
system.cpu.commit.committed_per_cycle::2         1363      2.26%     95.30% # Number of insts commited each cycle
system.cpu.commit.committed_per_cycle::3         1276      2.12%     97.41% # Number of insts commited each cycle
system.cpu.commit.committed_per_cycle::4         1559      2.59%    100.00% # Number of insts commited each cycle
system.cpu.commit.committed_per_cycle::overflows            0      0.00%    100.00% # Number of insts commited each cycle
system.cpu.commit.committed_per_cycle::min_value            0                       # Number of insts commited each cycle
system.cpu.commit.committed_per_cycle::max_value            4                       # Number of insts commited each cycle
system.cpu.commit.committed_per_cycle::total        60285                       # Number of insts commited each cycle
system.cpu.commit.committedInsts                 7739                       # Number of instructions committed
system.cpu.commit.committedOps                  15614                       # Number of ops (including micro ops) committed
system.cpu.commit.swp_count                         0                       # Number of s/w prefetches committed
system.cpu.commit.refs                           3006                       # Number of memory references committed
system.cpu.commit.loads                          1471                       # Number of loads committed
system.cpu.commit.membars                           0                       # Number of memory barriers committed
system.cpu.commit.branches                       1585                       # Number of branches committed
system.cpu.commit.vec_insts                         0                       # Number of committed Vector instructions.
system.cpu.commit.fp_insts                       2049                       # Number of committed floating point instructions.
system.cpu.commit.int_insts                     14016                       # Number of committed integer instructions.
system.cpu.commit.function_calls                  153                       # Number of function calls committed.
system.cpu.commit.op_class_0::No_OpClass          109      0.70%      0.70% # Class of committed instruction
system.cpu.commit.op_class_0::IntAlu            11435     73.24%     73.93% # Class of committed instruction
system.cpu.commit.op_class_0::IntMult               4      0.03%     73.96% # Class of committed instruction
system.cpu.commit.op_class_0::IntDiv               28      0.18%     74.14% # Class of committed instruction
system.cpu.commit.op_class_0::FloatAdd             12      0.08%     74.22% # Class of committed instruction
system.cpu.commit.op_class_0::FloatCmp              0      0.00%     74.22% # Class of committed instruction
system.cpu.commit.op_class_0::FloatCvt              0      0.00%     74.22% # Class of committed instruction
system.cpu.commit.op_class_0::FloatMult             0      0.00%     74.22% # Class of committed instruction
system.cpu.commit.op_class_0::FloatMultAcc            0      0.00%     74.22% # Class of committed instruction
system.cpu.commit.op_class_0::FloatDiv              0      0.00%     74.22% # Class of committed instruction
system.cpu.commit.op_class_0::FloatMisc             0      0.00%     74.22% # Class of committed instruction
system.cpu.commit.op_class_0::FloatSqrt             0      0.00%     74.22% # Class of committed instruction
system.cpu.commit.op_class_0::SimdAdd             374      2.40%     76.61% # Class of committed instruction
system.cpu.commit.op_class_0::SimdAddAcc            0      0.00%     76.61% # Class of committed instruction
system.cpu.commit.op_class_0::SimdAlu              90      0.58%     77.19% # Class of committed instruction
system.cpu.commit.op_class_0::SimdCmp               0      0.00%     77.19% # Class of committed instruction
system.cpu.commit.op_class_0::SimdCvt             130      0.83%     78.02% # Class of committed instruction
system.cpu.commit.op_class_0::SimdMisc            240      1.54%     79.56% # Class of committed instruction
system.cpu.commit.op_class_0::SimdMult              0      0.00%     79.56% # Class of committed instruction
system.cpu.commit.op_class_0::SimdMultAcc            0      0.00%     79.56% # Class of committed instruction
system.cpu.commit.op_class_0::SimdShift           186      1.19%     80.75% # Class of committed instruction
system.cpu.commit.op_class_0::SimdShiftAcc            0      0.00%     80.75% # Class of committed instruction
system.cpu.commit.op_class_0::SimdSqrt              0      0.00%     80.75% # Class of committed instruction
system.cpu.commit.op_class_0::SimdFloatAdd            0      0.00%     80.75% # Class of committed instruction
system.cpu.commit.op_class_0::SimdFloatAlu            0      0.00%     80.75% # Class of committed instruction
system.cpu.commit.op_class_0::SimdFloatCmp            0      0.00%     80.75% # Class of committed instruction
system.cpu.commit.op_class_0::SimdFloatCvt            0      0.00%     80.75% # Class of committed instruction
system.cpu.commit.op_class_0::SimdFloatDiv            0      0.00%     80.75% # Class of committed instruction
system.cpu.commit.op_class_0::SimdFloatMisc            0      0.00%     80.75% # Class of committed instruction
system.cpu.commit.op_class_0::SimdFloatMult            0      0.00%     80.75% # Class of committed instruction
system.cpu.commit.op_class_0::SimdFloatMultAcc            0      0.00%     80.75% # Class of committed instruction
system.cpu.commit.op_class_0::SimdFloatSqrt            0      0.00%     80.75% # Class of committed instruction
system.cpu.commit.op_class_0::SimdAes               0      0.00%     80.75% # Class of committed instruction
system.cpu.commit.op_class_0::SimdAesMix            0      0.00%     80.75% # Class of committed instruction
system.cpu.commit.op_class_0::SimdSha1Hash            0      0.00%     80.75% # Class of committed instruction
system.cpu.commit.op_class_0::SimdSha1Hash2            0      0.00%     80.75% # Class of committed instruction
system.cpu.commit.op_class_0::SimdSha256Hash            0      0.00%     80.75% # Class of committed instruction
system.cpu.commit.op_class_0::SimdSha256Hash2            0      0.00%     80.75% # Class of committed instruction
system.cpu.commit.op_class_0::SimdShaSigma2            0      0.00%     80.75% # Class of committed instruction
system.cpu.commit.op_class_0::SimdShaSigma3            0      0.00%     80.75% # Class of committed instruction
system.cpu.commit.op_class_0::MemRead            1397      8.95%     89.70% # Class of committed instruction
system.cpu.commit.op_class_0::MemWrite           1114      7.13%     96.83% # Class of committed instruction
system.cpu.commit.op_class_0::FloatMemRead           74      0.47%     97.30% # Class of committed instruction
system.cpu.commit.op_class_0::FloatMemWrite          421      2.70%    100.00% # Class of committed instruction
system.cpu.commit.op_class_0::IprAccess             0      0.00%    100.00% # Class of committed instruction
system.cpu.commit.op_class_0::InstPrefetch            0      0.00%    100.00% # Class of committed instruction
system.cpu.commit.op_class_0::total             15614                       # Class of committed instruction
system.cpu.commit.bw_lim_events                  1559                       # number cycles where commit BW limit reached
system.cpu.rob.rob_reads                        93512                       # The number of ROB reads
system.cpu.rob.rob_writes                       71562                       # The number of ROB writes
system.cpu.timesIdled                             287                       # Number of times that the entire CPU went into an idle state and unscheduled itself
system.cpu.idleCycles                           23425                       # Total number of cycles that the CPU has spent unscheduled due to idling
system.cpu.committedInsts                        7739                       # Number of Instructions Simulated
system.cpu.committedOps                         15614                       # Number of Ops (including micro ops) Simulated
system.cpu.cpi                              11.069001                       # CPI: Cycles Per Instruction
system.cpu.cpi_total                        11.069001                       # CPI: Total CPI of All Threads
system.cpu.ipc                               0.090342                       # IPC: Instructions Per Cycle
system.cpu.ipc_total                         0.090342                       # IPC: Total IPC of All Threads
system.cpu.int_regfile_reads                    30636                       # number of integer regfile reads
system.cpu.int_regfile_writes                   18186                       # number of integer regfile writes
system.cpu.fp_regfile_reads                      3978                       # number of floating regfile reads
system.cpu.fp_regfile_writes                     1587                       # number of floating regfile writes
system.cpu.cc_regfile_reads                     10431                       # number of cc regfile reads
system.cpu.cc_regfile_writes                     6076                       # number of cc regfile writes
system.cpu.misc_regfile_reads                   10550                       # number of misc regfile reads
system.cpu.dcache.tags.pwrStateResidencyTicks::UNDEFINED     42831000                       # Cumulative time (in ticks) in various power states
system.cpu.dcache.tags.tagsinuse           145.542857                       # Cycle average of tags in use
system.cpu.dcache.tags.total_refs                3801                       # Total number of references to valid blocks.
system.cpu.dcache.tags.sampled_refs               257                       # Sample count of references to valid blocks.
system.cpu.dcache.tags.avg_refs             14.789883                       # Average number of references to valid blocks.
system.cpu.dcache.tags.warmup_cycle            169500                       # Cycle when the warmup percentage was hit.
system.cpu.dcache.tags.occ_blocks::.cpu.data   145.542857                       # Average occupied blocks per requestor
system.cpu.dcache.tags.occ_percent::.cpu.data     0.284263                       # Average percentage of cache occupancy
system.cpu.dcache.tags.occ_percent::total     0.284263                       # Average percentage of cache occupancy
system.cpu.dcache.tags.occ_task_id_blocks::1024          257                       # Occupied blocks per task id
system.cpu.dcache.tags.age_task_id_blocks_1024::0           44                       # Occupied blocks per task id
system.cpu.dcache.tags.age_task_id_blocks_1024::1          213                       # Occupied blocks per task id
system.cpu.dcache.tags.occ_task_id_percent::1024     0.501953                       # Percentage of cache occupancy per task id
system.cpu.dcache.tags.tag_accesses             31585                       # Number of tag accesses
system.cpu.dcache.tags.data_accesses            31585                       # Number of data accesses
system.cpu.dcache.pwrStateResidencyTicks::UNDEFINED     42831000                       # Cumulative time (in ticks) in various power states
system.cpu.dcache.ReadReq_hits::.cpu.data         2137                       # number of ReadReq hits
system.cpu.dcache.ReadReq_hits::total            2137                       # number of ReadReq hits
system.cpu.dcache.WriteReq_hits::.cpu.data         1407                       # number of WriteReq hits
system.cpu.dcache.WriteReq_hits::total           1407                       # number of WriteReq hits
system.cpu.dcache.demand_hits::.cpu.data         3544                       # number of demand (read+write) hits
system.cpu.dcache.demand_hits::total             3544                       # number of demand (read+write) hits
system.cpu.dcache.overall_hits::.cpu.data         3544                       # number of overall hits
system.cpu.dcache.overall_hits::total            3544                       # number of overall hits
system.cpu.dcache.ReadReq_misses::.cpu.data          244                       # number of ReadReq misses
system.cpu.dcache.ReadReq_misses::total           244                       # number of ReadReq misses
system.cpu.dcache.WriteReq_misses::.cpu.data          128                       # number of WriteReq misses
system.cpu.dcache.WriteReq_misses::total          128                       # number of WriteReq misses
system.cpu.dcache.demand_misses::.cpu.data          372                       # number of demand (read+write) misses
system.cpu.dcache.demand_misses::total            372                       # number of demand (read+write) misses
system.cpu.dcache.overall_misses::.cpu.data          372                       # number of overall misses
system.cpu.dcache.overall_misses::total           372                       # number of overall misses
system.cpu.dcache.ReadReq_miss_latency::.cpu.data     19052000                       # number of ReadReq miss cycles
system.cpu.dcache.ReadReq_miss_latency::total     19052000                       # number of ReadReq miss cycles
system.cpu.dcache.WriteReq_miss_latency::.cpu.data     10316000                       # number of WriteReq miss cycles
system.cpu.dcache.WriteReq_miss_latency::total     10316000                       # number of WriteReq miss cycles
system.cpu.dcache.demand_miss_latency::.cpu.data     29368000                       # number of demand (read+write) miss cycles
system.cpu.dcache.demand_miss_latency::total     29368000                       # number of demand (read+write) miss cycles
system.cpu.dcache.overall_miss_latency::.cpu.data     29368000                       # number of overall miss cycles
system.cpu.dcache.overall_miss_latency::total     29368000                       # number of overall miss cycles
system.cpu.dcache.ReadReq_accesses::.cpu.data         2381                       # number of ReadReq accesses(hits+misses)
system.cpu.dcache.ReadReq_accesses::total         2381                       # number of ReadReq accesses(hits+misses)
system.cpu.dcache.WriteReq_accesses::.cpu.data         1535                       # number of WriteReq accesses(hits+misses)
system.cpu.dcache.WriteReq_accesses::total         1535                       # number of WriteReq accesses(hits+misses)
system.cpu.dcache.demand_accesses::.cpu.data         3916                       # number of demand (read+write) accesses
system.cpu.dcache.demand_accesses::total         3916                       # number of demand (read+write) accesses
system.cpu.dcache.overall_accesses::.cpu.data         3916                       # number of overall (read+write) accesses
system.cpu.dcache.overall_accesses::total         3916                       # number of overall (read+write) accesses
system.cpu.dcache.ReadReq_miss_rate::.cpu.data     0.102478                       # miss rate for ReadReq accesses
system.cpu.dcache.ReadReq_miss_rate::total     0.102478                       # miss rate for ReadReq accesses
system.cpu.dcache.WriteReq_miss_rate::.cpu.data     0.083388                       # miss rate for WriteReq accesses
system.cpu.dcache.WriteReq_miss_rate::total     0.083388                       # miss rate for WriteReq accesses
system.cpu.dcache.demand_miss_rate::.cpu.data     0.094995                       # miss rate for demand accesses
system.cpu.dcache.demand_miss_rate::total     0.094995                       # miss rate for demand accesses
system.cpu.dcache.overall_miss_rate::.cpu.data     0.094995                       # miss rate for overall accesses
system.cpu.dcache.overall_miss_rate::total     0.094995                       # miss rate for overall accesses
system.cpu.dcache.ReadReq_avg_miss_latency::.cpu.data 78081.967213                       # average ReadReq miss latency
system.cpu.dcache.ReadReq_avg_miss_latency::total 78081.967213                       # average ReadReq miss latency
[...]
system.l3bus.snoop_fanout::1                        0      0.00%    100.00% # Request fanout histogram
system.l3bus.snoop_fanout::overflows                0      0.00%    100.00% # Request fanout histogram
system.l3bus.snoop_fanout::min_value                0                       # Request fanout histogram
system.l3bus.snoop_fanout::max_value                0                       # Request fanout histogram
system.l3bus.snoop_fanout::total                  792                       # Request fanout histogram
system.l3bus.reqLayer0.occupancy               396000                       # Layer occupancy (ticks)
system.l3bus.reqLayer0.utilization                0.9                       # Layer utilization (%)
system.l3bus.respLayer0.occupancy             1980000                       # Layer occupancy (ticks)
system.l3bus.respLayer0.utilization               4.6                       # Layer utilization (%)
system.l3cache.tags.pwrStateResidencyTicks::UNDEFINED     42831000                       # Cumulative time (in ticks) in various power states
system.l3cache.tags.tagsinuse              399.615533                       # Cycle average of tags in use
system.l3cache.tags.total_refs                    792                       # Total number of references to valid blocks.
system.l3cache.tags.sampled_refs                  792                       # Sample count of references to valid blocks.
system.l3cache.tags.avg_refs                        1                       # Average number of references to valid blocks.
system.l3cache.tags.warmup_cycle                76000                       # Cycle when the warmup percentage was hit.
system.l3cache.tags.occ_blocks::.cpu.inst   254.435521                       # Average occupied blocks per requestor
system.l3cache.tags.occ_blocks::.cpu.data   145.180012                       # Average occupied blocks per requestor
system.l3cache.tags.occ_percent::.cpu.inst     0.007765                       # Average percentage of cache occupancy
system.l3cache.tags.occ_percent::.cpu.data     0.004431                       # Average percentage of cache occupancy
system.l3cache.tags.occ_percent::total       0.012195                       # Average percentage of cache occupancy
system.l3cache.tags.occ_task_id_blocks::1024          792                       # Occupied blocks per task id
system.l3cache.tags.age_task_id_blocks_1024::0          185                       # Occupied blocks per task id
system.l3cache.tags.age_task_id_blocks_1024::1          607                       # Occupied blocks per task id
system.l3cache.tags.occ_task_id_percent::1024     0.024170                       # Percentage of cache occupancy per task id
system.l3cache.tags.tag_accesses                13464                       # Number of tag accesses
system.l3cache.tags.data_accesses               13464                       # Number of data accesses
system.l3cache.pwrStateResidencyTicks::UNDEFINED     42831000                       # Cumulative time (in ticks) in various power states
system.l3cache.ReadExReq_misses::.cpu.data          125                       # number of ReadExReq misses
system.l3cache.ReadExReq_misses::total            125                       # number of ReadExReq misses
system.l3cache.ReadSharedReq_misses::.cpu.inst          537                       # number of ReadSharedReq misses
system.l3cache.ReadSharedReq_misses::.cpu.data          130                       # number of ReadSharedReq misses
system.l3cache.ReadSharedReq_misses::total          667                       # number of ReadSharedReq misses
system.l3cache.demand_misses::.cpu.inst           537                       # number of demand (read+write) misses
system.l3cache.demand_misses::.cpu.data           255                       # number of demand (read+write) misses
system.l3cache.demand_misses::total               792                       # number of demand (read+write) misses
system.l3cache.overall_misses::.cpu.inst          537                       # number of overall misses
system.l3cache.overall_misses::.cpu.data          255                       # number of overall misses
system.l3cache.overall_misses::total              792                       # number of overall misses
system.l3cache.ReadExReq_miss_latency::.cpu.data      8469500                       # number of ReadExReq miss cycles
system.l3cache.ReadExReq_miss_latency::total      8469500                       # number of ReadExReq miss cycles
system.l3cache.ReadSharedReq_miss_latency::.cpu.inst     37500000                       # number of ReadSharedReq miss cycles
system.l3cache.ReadSharedReq_miss_latency::.cpu.data      9320000                       # number of ReadSharedReq miss cycles
system.l3cache.ReadSharedReq_miss_latency::total     46820000                       # number of ReadSharedReq miss cycles
system.l3cache.demand_miss_latency::.cpu.inst     37500000                       # number of demand (read+write) miss cycles
system.l3cache.demand_miss_latency::.cpu.data     17789500                       # number of demand (read+write) miss cycles
system.l3cache.demand_miss_latency::total     55289500                       # number of demand (read+write) miss cycles
system.l3cache.overall_miss_latency::.cpu.inst     37500000                       # number of overall miss cycles
system.l3cache.overall_miss_latency::.cpu.data     17789500                       # number of overall miss cycles
system.l3cache.overall_miss_latency::total     55289500                       # number of overall miss cycles
system.l3cache.ReadExReq_accesses::.cpu.data          125                       # number of ReadExReq accesses(hits+misses)
system.l3cache.ReadExReq_accesses::total          125                       # number of ReadExReq accesses(hits+misses)
system.l3cache.ReadSharedReq_accesses::.cpu.inst          537                       # number of ReadSharedReq accesses(hits+misses)
system.l3cache.ReadSharedReq_accesses::.cpu.data          130                       # number of ReadSharedReq accesses(hits+misses)
system.l3cache.ReadSharedReq_accesses::total          667                       # number of ReadSharedReq accesses(hits+misses)
system.l3cache.demand_accesses::.cpu.inst          537                       # number of demand (read+write) accesses
system.l3cache.demand_accesses::.cpu.data          255                       # number of demand (read+write) accesses
system.l3cache.demand_accesses::total             792                       # number of demand (read+write) accesses
system.l3cache.overall_accesses::.cpu.inst          537                       # number of overall (read+write) accesses
system.l3cache.overall_accesses::.cpu.data          255                       # number of overall (read+write) accesses
system.l3cache.overall_accesses::total            792                       # number of overall (read+write) accesses
system.l3cache.ReadExReq_miss_rate::.cpu.data            1                       # miss rate for ReadExReq accesses
system.l3cache.ReadExReq_miss_rate::total            1                       # miss rate for ReadExReq accesses
system.l3cache.ReadSharedReq_miss_rate::.cpu.inst            1                       # miss rate for ReadSharedReq accesses
system.l3cache.ReadSharedReq_miss_rate::.cpu.data            1                       # miss rate for ReadSharedReq accesses
system.l3cache.ReadSharedReq_miss_rate::total            1                       # miss rate for ReadSharedReq accesses
system.l3cache.demand_miss_rate::.cpu.inst            1                       # miss rate for demand accesses
system.l3cache.demand_miss_rate::.cpu.data            1                       # miss rate for demand accesses
system.l3cache.demand_miss_rate::total              1                       # miss rate for demand accesses
system.l3cache.overall_miss_rate::.cpu.inst            1                       # miss rate for overall accesses
system.l3cache.overall_miss_rate::.cpu.data            1                       # miss rate for overall accesses
system.l3cache.overall_miss_rate::total             1                       # miss rate for overall accesses
system.l3cache.ReadExReq_avg_miss_latency::.cpu.data        67756                       # average ReadExReq miss latency
system.l3cache.ReadExReq_avg_miss_latency::total        67756                       # average ReadExReq miss latency
system.l3cache.ReadSharedReq_avg_miss_latency::.cpu.inst 69832.402235                       # average ReadSharedReq miss latency
system.l3cache.ReadSharedReq_avg_miss_latency::.cpu.data 71692.307692                       # average ReadSharedReq miss latency
system.l3cache.ReadSharedReq_avg_miss_latency::total 70194.902549                       # average ReadSharedReq miss latency
system.l3cache.demand_avg_miss_latency::.cpu.inst 69832.402235                       # average overall miss latency
system.l3cache.demand_avg_miss_latency::.cpu.data 69762.745098                       # average overall miss latency
system.l3cache.demand_avg_miss_latency::total 69809.974747                       # average overall miss latency
system.l3cache.overall_avg_miss_latency::.cpu.inst 69832.402235                       # average overall miss latency
system.l3cache.overall_avg_miss_latency::.cpu.data 69762.745098                       # average overall miss latency
system.l3cache.overall_avg_miss_latency::total 69809.974747                       # average overall miss latency
system.l3cache.blocked_cycles::no_mshrs             0                       # number of cycles access was blocked
system.l3cache.blocked_cycles::no_targets            0                       # number of cycles access was blocked
system.l3cache.blocked::no_mshrs                    0                       # number of cycles access was blocked
system.l3cache.blocked::no_targets                  0                       # number of cycles access was blocked
system.l3cache.avg_blocked_cycles::no_mshrs          nan                       # average number of cycles each access was blocked
system.l3cache.avg_blocked_cycles::no_targets          nan                       # average number of cycles each access was blocked
system.l3cache.ReadExReq_mshr_misses::.cpu.data          125                       # number of ReadExReq MSHR misses
system.l3cache.ReadExReq_mshr_misses::total          125                       # number of ReadExReq MSHR misses
system.l3cache.ReadSharedReq_mshr_misses::.cpu.inst          537                       # number of ReadSharedReq MSHR misses
system.l3cache.ReadSharedReq_mshr_misses::.cpu.data          130                       # number of ReadSharedReq MSHR misses
system.l3cache.ReadSharedReq_mshr_misses::total          667                       # number of ReadSharedReq MSHR misses
system.l3cache.demand_mshr_misses::.cpu.inst          537                       # number of demand (read+write) MSHR misses
system.l3cache.demand_mshr_misses::.cpu.data          255                       # number of demand (read+write) MSHR misses
system.l3cache.demand_mshr_misses::total          792                       # number of demand (read+write) MSHR misses
system.l3cache.overall_mshr_misses::.cpu.inst          537                       # number of overall MSHR misses
system.l3cache.overall_mshr_misses::.cpu.data          255                       # number of overall MSHR misses
system.l3cache.overall_mshr_misses::total          792                       # number of overall MSHR misses
system.l3cache.ReadExReq_mshr_miss_latency::.cpu.data      8219500                       # number of ReadExReq MSHR miss cycles
system.l3cache.ReadExReq_mshr_miss_latency::total      8219500                       # number of ReadExReq MSHR miss cycles
system.l3cache.ReadSharedReq_mshr_miss_latency::.cpu.inst     36426000                       # number of ReadSharedReq MSHR miss cycles
system.l3cache.ReadSharedReq_mshr_miss_latency::.cpu.data      9060000                       # number of ReadSharedReq MSHR miss cycles
system.l3cache.ReadSharedReq_mshr_miss_latency::total     45486000                       # number of ReadSharedReq MSHR miss cycles
system.l3cache.demand_mshr_miss_latency::.cpu.inst     36426000                       # number of demand (read+write) MSHR miss cycles
system.l3cache.demand_mshr_miss_latency::.cpu.data     17279500                       # number of demand (read+write) MSHR miss cycles
system.l3cache.demand_mshr_miss_latency::total     53705500                       # number of demand (read+write) MSHR miss cycles
system.l3cache.overall_mshr_miss_latency::.cpu.inst     36426000                       # number of overall MSHR miss cycles
system.l3cache.overall_mshr_miss_latency::.cpu.data     17279500                       # number of overall MSHR miss cycles
system.l3cache.overall_mshr_miss_latency::total     53705500                       # number of overall MSHR miss cycles
system.l3cache.ReadExReq_mshr_miss_rate::.cpu.data            1                       # mshr miss rate for ReadExReq accesses
system.l3cache.ReadExReq_mshr_miss_rate::total            1                       # mshr miss rate for ReadExReq accesses
system.l3cache.ReadSharedReq_mshr_miss_rate::.cpu.inst            1                       # mshr miss rate for ReadSharedReq accesses
system.l3cache.ReadSharedReq_mshr_miss_rate::.cpu.data            1                       # mshr miss rate for ReadSharedReq accesses
system.l3cache.ReadSharedReq_mshr_miss_rate::total            1                       # mshr miss rate for ReadSharedReq accesses
system.l3cache.demand_mshr_miss_rate::.cpu.inst            1                       # mshr miss rate for demand accesses
system.l3cache.demand_mshr_miss_rate::.cpu.data            1                       # mshr miss rate for demand accesses
system.l3cache.demand_mshr_miss_rate::total            1                       # mshr miss rate for demand accesses
system.l3cache.overall_mshr_miss_rate::.cpu.inst            1                       # mshr miss rate for overall accesses
system.l3cache.overall_mshr_miss_rate::.cpu.data            1                       # mshr miss rate for overall accesses
system.l3cache.overall_mshr_miss_rate::total            1                       # mshr miss rate for overall accesses
system.l3cache.ReadExReq_avg_mshr_miss_latency::.cpu.data        65756                       # average ReadExReq mshr miss latency
system.l3cache.ReadExReq_avg_mshr_miss_latency::total        65756                       # average ReadExReq mshr miss latency
system.l3cache.ReadSharedReq_avg_mshr_miss_latency::.cpu.inst 67832.402235                       # average ReadSharedReq mshr miss latency
system.l3cache.ReadSharedReq_avg_mshr_miss_latency::.cpu.data 69692.307692                       # average ReadSharedReq mshr miss latency
system.l3cache.ReadSharedReq_avg_mshr_miss_latency::total 68194.902549                       # average ReadSharedReq mshr miss latency
system.l3cache.demand_avg_mshr_miss_latency::.cpu.inst 67832.402235                       # average overall mshr miss latency
system.l3cache.demand_avg_mshr_miss_latency::.cpu.data 67762.745098                       # average overall mshr miss latency
system.l3cache.demand_avg_mshr_miss_latency::total 67809.974747                       # average overall mshr miss latency
system.l3cache.overall_avg_mshr_miss_latency::.cpu.inst 67832.402235                       # average overall mshr miss latency
system.l3cache.overall_avg_mshr_miss_latency::.cpu.data 67762.745098                       # average overall mshr miss latency
system.l3cache.overall_avg_mshr_miss_latency::total 67809.974747                       # average overall mshr miss latency
system.l3cache.replacements                         0                       # number of replacements
system.membus.snoop_filter.tot_requests           792                       # Total number of requests made to the snoop filter.
system.membus.snoop_filter.hit_single_requests            0                       # Number of requests hitting in the snoop filter with a single holder of the requested data.
system.membus.snoop_filter.hit_multi_requests            0                       # Number of requests hitting in the snoop filter with multiple (>1) holders of the requested data.
system.membus.snoop_filter.tot_snoops               0                       # Total number of snoops made to the snoop filter.
system.membus.snoop_filter.hit_single_snoops            0                       # Number of snoops hitting in the snoop filter with a single holder of the requested data.
system.membus.snoop_filter.hit_multi_snoops            0                       # Number of snoops hitting in the snoop filter with multiple (>1) holders of the requested data.
system.membus.pwrStateResidencyTicks::UNDEFINED     42831000                       # Cumulative time (in ticks) in various power states
system.membus.trans_dist::ReadResp                667                       # Transaction distribution
system.membus.trans_dist::ReadExReq               125                       # Transaction distribution
system.membus.trans_dist::ReadExResp              125                       # Transaction distribution
system.membus.trans_dist::ReadSharedReq           667                       # Transaction distribution
system.membus.pkt_count_system.l3cache.mem_side::system.mem_ctrl.port         1584                       # Packet count per connected master and slave (bytes)
system.membus.pkt_count_system.l3cache.mem_side::total         1584                       # Packet count per connected master and slave (bytes)
system.membus.pkt_count::total                   1584                       # Packet count per connected master and slave (bytes)
system.membus.pkt_size_system.l3cache.mem_side::system.mem_ctrl.port        50688                       # Cumulative packet size per connected master and slave (bytes)
system.membus.pkt_size_system.l3cache.mem_side::total        50688                       # Cumulative packet size per connected master and slave (bytes)
system.membus.pkt_size::total                   50688                       # Cumulative packet size per connected master and slave (bytes)
system.membus.snoops                                0                       # Total snoops (count)
system.membus.snoopTraffic                          0                       # Total snoop traffic (bytes)
system.membus.snoop_fanout::samples               792                       # Request fanout histogram
system.membus.snoop_fanout::mean                    0                       # Request fanout histogram
system.membus.snoop_fanout::stdev                   0                       # Request fanout histogram
system.membus.snoop_fanout::underflows              0      0.00%      0.00% # Request fanout histogram
system.membus.snoop_fanout::0                     792    100.00%    100.00% # Request fanout histogram
system.membus.snoop_fanout::1                       0      0.00%    100.00% # Request fanout histogram
system.membus.snoop_fanout::overflows               0      0.00%    100.00% # Request fanout histogram
system.membus.snoop_fanout::min_value               0                       # Request fanout histogram
system.membus.snoop_fanout::max_value               0                       # Request fanout histogram
system.membus.snoop_fanout::total                 792                       # Request fanout histogram
system.membus.reqLayer0.occupancy              396000                       # Layer occupancy (ticks)
system.membus.reqLayer0.utilization               0.9                       # Layer utilization (%)
system.membus.respLayer0.occupancy            2152750                       # Layer occupancy (ticks)
system.membus.respLayer0.utilization              5.0                       # Layer utilization (%)

---------- End Simulation Statistics   ----------