
---------- Begin Simulation Statistics ----------
sim_seconds                                  0.045749                       # Number of seconds simulated
sim_ticks                                 45749108500                       # Number of ticks simulated
final_tick                                45749108500                       # Number of ticks from beginning of simulation (restored from checkpoints and never reset)
sim_freq                                 1000000000000                       # Frequency of simulated ticks
host_inst_rate                                 280271                       # Simulator instruction rate (inst/s)
host_op_rate                                   493251                       # Simulator op (including micro ops) rate (op/s)
host_tick_rate                              205069506                       # Simulator tick rate (ticks/s)
host_mem_usage                                 660264                       # Number of bytes of host memory used
host_seconds                                   223.09                       # Real time elapsed on the host
sim_insts                                    62525833                       # Number of instructions simulated
sim_ops                                     110039685                       # Number of ops (including micro ops) simulated
system.clk_domain.voltage_domain.voltage            1                       # Voltage in Volts
system.clk_domain.clock                           500                       # Clock period in ticks
system.mem_ctrl.pwrStateResidencyTicks::UNDEFINED  45749108500                       # Cumulative time (in ticks) in various power states
system.mem_ctrl.bytes_read::.cpu.inst           50048                       # Number of bytes read from this memory
system.mem_ctrl.bytes_read::.cpu.data          561216                       # Number of bytes read from this memory
system.mem_ctrl.bytes_read::total              611264                       # Number of bytes read from this memory
system.mem_ctrl.bytes_inst_read::.cpu.inst        50048                       # Number of instructions bytes read from this memory
system.mem_ctrl.bytes_inst_read::total          50048                       # Number of instructions bytes read from this memory
system.mem_ctrl.num_reads::.cpu.inst              782                       # Number of read requests responded to by this memory
system.mem_ctrl.num_reads::.cpu.data             8769                       # Number of read requests responded to by this memory
system.mem_ctrl.num_reads::total                 9551                       # Number of read requests responded to by this memory
system.mem_ctrl.bw_read::.cpu.inst            1093967                       # Total read bandwidth from this memory (bytes/s)
system.mem_ctrl.bw_read::.cpu.data           12267255                       # Total read bandwidth from this memory (bytes/s)
system.mem_ctrl.bw_read::total               13361222                       # Total read bandwidth from this memory (bytes/s)
system.mem_ctrl.bw_inst_read::.cpu.inst       1093967                       # Instruction read bandwidth from this memory (bytes/s)
system.mem_ctrl.bw_inst_read::total           1093967                       # Instruction read bandwidth from this memory (bytes/s)
system.mem_ctrl.bw_total::.cpu.inst           1093967                       # Total bandwidth to/from this memory (bytes/s)
system.mem_ctrl.bw_total::.cpu.data          12267255                       # Total bandwidth to/from this memory (bytes/s)
system.mem_ctrl.bw_total::total              13361222                       # Total bandwidth to/from this memory (bytes/s)
system.mem_ctrl.avgPriority_.cpu.inst::samples       782.00                       # Average QoS priority value for accepted requests
system.mem_ctrl.avgPriority_.cpu.data::samples      8769.00                       # Average QoS priority value for accepted requests
system.mem_ctrl.priorityMinLatency       0.000000018750                       # per QoS priority minimum request to response latency (s)
system.mem_ctrl.priorityMaxLatency       0.000001099750                       # per QoS priority maximum request to response latency (s)
system.mem_ctrl.numReadWriteTurnArounds             0                       # Number of turnarounds from READ to WRITE
system.mem_ctrl.numWriteReadTurnArounds             0                       # Number of turnarounds from WRITE to READ
system.mem_ctrl.numStayReadState                25069                       # Number of times bus staying in READ state
system.mem_ctrl.numStayWriteState                   0                       # Number of times bus staying in WRITE state
system.mem_ctrl.readReqs                         9551                       # Number of read requests accepted
system.mem_ctrl.writeReqs                           0                       # Number of write requests accepted
system.mem_ctrl.readBursts                       9551                       # Number of DRAM read bursts, including those serviced by the write queue
system.mem_ctrl.writeBursts                         0                       # Number of DRAM write bursts, including those merged in the write queue
system.mem_ctrl.bytesReadDRAM                  611264                       # Total number of bytes read from DRAM
system.mem_ctrl.bytesReadWrQ                        0                       # Total number of bytes read from write queue
system.mem_ctrl.bytesWritten                        0                       # Total number of bytes written to DRAM
system.mem_ctrl.bytesReadSys                   611264                       # Total read bytes from the system interface side
system.mem_ctrl.bytesWrittenSys                     0                       # Total written bytes from the system interface side
system.mem_ctrl.servicedByWrQ                       0                       # Number of DRAM read bursts serviced by the write queue
system.mem_ctrl.mergedWrBursts                      0                       # Number of DRAM write bursts merged with an existing one
system.mem_ctrl.neitherReadNorWriteReqs             0                       # Number of requests that are neither read nor write
system.mem_ctrl.perBankRdBursts::0                781                       # Per bank write bursts
system.mem_ctrl.perBankRdBursts::1                623                       # Per bank write bursts
system.mem_ctrl.perBankRdBursts::2                552                       # Per bank write bursts
system.mem_ctrl.perBankRdBursts::3                527                       # Per bank write bursts
system.mem_ctrl.perBankRdBursts::4                542                       # Per bank write bursts
system.mem_ctrl.perBankRdBursts::5                525                       # Per bank write bursts
system.mem_ctrl.perBankRdBursts::6                587                       # Per bank write bursts
system.mem_ctrl.perBankRdBursts::7                614                       # Per bank write bursts
system.mem_ctrl.perBankRdBursts::8                541                       # Per bank write bursts
system.mem_ctrl.perBankRdBursts::9                565                       # Per bank write bursts
system.mem_ctrl.perBankRdBursts::10               655                       # Per bank write bursts
system.mem_ctrl.perBankRdBursts::11               616                       # Per bank write bursts
system.mem_ctrl.perBankRdBursts::12               568                       # Per bank write bursts
system.mem_ctrl.perBankRdBursts::13               581                       # Per bank write bursts
system.mem_ctrl.perBankRdBursts::14               622                       # Per bank write bursts
system.mem_ctrl.perBankRdBursts::15               652                       # Per bank write bursts
system.mem_ctrl.perBankWrBursts::0                  0                       # Per bank write bursts
system.mem_ctrl.perBankWrBursts::1                  0                       # Per bank write bursts
system.mem_ctrl.perBankWrBursts::2                  0                       # Per bank write bursts
system.mem_ctrl.perBankWrBursts::3                  0                       # Per bank write bursts
system.mem_ctrl.perBankWrBursts::4                  0                       # Per bank write bursts
system.mem_ctrl.perBankWrBursts::5                  0                       # Per bank write bursts
system.mem_ctrl.perBankWrBursts::6                  0                       # Per bank write bursts
system.mem_ctrl.perBankWrBursts::7                  0                       # Per bank write bursts
system.mem_ctrl.perBankWrBursts::8                  0                       # Per bank write bursts
system.mem_ctrl.perBankWrBursts::9                  0                       # Per bank write bursts
system.mem_ctrl.perBankWrBursts::10                 0                       # Per bank write bursts
system.mem_ctrl.perBankWrBursts::11                 0                       # Per bank write bursts
system.mem_ctrl.perBankWrBursts::12                 0                       # Per bank write bursts
system.mem_ctrl.perBankWrBursts::13                 0                       # Per bank write bursts
system.mem_ctrl.perBankWrBursts::14                 0                       # Per bank write bursts
system.mem_ctrl.perBankWrBursts::15                 0                       # Per bank write bursts
system.mem_ctrl.numRdRetry                          0                       # Number of times read queue was full causing retry
system.mem_ctrl.numWrRetry                          0                       # Number of times write queue was full causing retry
system.mem_ctrl.totGap                    45749024500                       # Total gap between requests
system.mem_ctrl.readPktSize::0                      0                       # Read request sizes (log2)
system.mem_ctrl.readPktSize::1                      0                       # Read request sizes (log2)
system.mem_ctrl.readPktSize::2                      0                       # Read request sizes (log2)
system.mem_ctrl.readPktSize::3                      0                       # Read request sizes (log2)
system.mem_ctrl.readPktSize::4                      0                       # Read request sizes (log2)
system.mem_ctrl.readPktSize::5                      0                       # Read request sizes (log2)
system.mem_ctrl.readPktSize::6                   9551                       # Read request sizes (log2)
system.mem_ctrl.writePktSize::0                     0                       # Write request sizes (log2)
system.mem_ctrl.writePktSize::1                     0                       # Write request sizes (log2)
system.mem_ctrl.writePktSize::2                     0                       # Write request sizes (log2)
system.mem_ctrl.writePktSize::3                     0                       # Write request sizes (log2)
system.mem_ctrl.writePktSize::4                     0                       # Write request sizes (log2)
system.mem_ctrl.writePktSize::5                     0                       # Write request sizes (log2)
system.mem_ctrl.writePktSize::6                     0                       # Write request sizes (log2)
system.mem_ctrl.rdQLenPdf::0                     9180                       # What read queue length does an incoming req see
system.mem_ctrl.rdQLenPdf::1                      290                       # What read queue length does an incoming req see
system.mem_ctrl.rdQLenPdf::2                       69                       # What read queue length does an incoming req see
system.mem_ctrl.rdQLenPdf::3                       10                       # What read queue length does an incoming req see
system.mem_ctrl.rdQLenPdf::4                        2                       # What read queue length does an incoming req see
system.mem_ctrl.rdQLenPdf::5                        0                       # What read queue length does an incoming req see
system.mem_ctrl.rdQLenPdf::6                        0                       # What read queue length does an incoming req see
system.mem_ctrl.rdQLenPdf::7                        0                       # What read queue length does an incoming req see
system.mem_ctrl.rdQLenPdf::8                        0                       # What read queue length does an incoming req see
system.mem_ctrl.rdQLenPdf::9                        0                       # What read queue length does an incoming req see
system.mem_ctrl.rdQLenPdf::10                       0                       # What read queue length does an incoming req see
system.mem_ctrl.rdQLenPdf::11                       0                       # What read queue length does an incoming req see
system.mem_ctrl.rdQLenPdf::12                       0                       # What read queue length does an incoming req see
system.mem_ctrl.rdQLenPdf::13                       0                       # What read queue length does an incoming req see
system.mem_ctrl.rdQLenPdf::14                       0                       # What read queue length does an incoming req see
system.mem_ctrl.rdQLenPdf::15                       0                       # What read queue length does an incoming req see
system.mem_ctrl.rdQLenPdf::16                       0                       # What read queue length does an incoming req see
system.mem_ctrl.rdQLenPdf::17                       0                       # What read queue length does an incoming req see
system.mem_ctrl.rdQLenPdf::18                       0                       # What read queue length does an incoming req see
system.mem_ctrl.rdQLenPdf::19                       0                       # What read queue length does an incoming req see
system.mem_ctrl.rdQLenPdf::20                       0                       # What read queue length does an incoming req see
system.mem_ctrl.rdQLenPdf::21                       0                       # What read queue length does an incoming req see
system.mem_ctrl.rdQLenPdf::22                       0                       # What read queue length does an incoming req see
system.mem_ctrl.rdQLenPdf::23                       0                       # What read queue length does an incoming req see
system.mem_ctrl.rdQLenPdf::24                       0                       # What read queue length does an incoming req see
system.mem_ctrl.rdQLenPdf::25                       0                       # What read queue length does an incoming req see
system.mem_ctrl.rdQLenPdf::26                       0                       # What read queue length does an incoming req see
system.mem_ctrl.rdQLenPdf::27                       0                       # What read queue length does an incoming req see
system.mem_ctrl.rdQLenPdf::28                       0                       # What read queue length does an incoming req see
system.mem_ctrl.rdQLenPdf::29                       0                       # What read queue length does an incoming req see
system.mem_ctrl.rdQLenPdf::30                       0                       # What read queue length does an incoming req see
system.mem_ctrl.rdQLenPdf::31                       0                       # What read queue length does an incoming req see
system.mem_ctrl.wrQLenPdf::0                        0                       # What write queue length does an incoming req see
system.mem_ctrl.wrQLenPdf::1                        0                       # What write queue length does an incoming req see
system.mem_ctrl.wrQLenPdf::2                        0                       # What write queue length does an incoming req see
system.mem_ctrl.wrQLenPdf::3                        0                       # What write queue length does an incoming req see
system.mem_ctrl.wrQLenPdf::4                        0                       # What write queue length does an incoming req see
system.mem_ctrl.wrQLenPdf::5                        0                       # What write queue length does an incoming req see
system.mem_ctrl.wrQLenPdf::6                        0                       # What write queue length does an incoming req see
system.mem_ctrl.wrQLenPdf::7                        0                       # What write queue length does an incoming req see
system.mem_ctrl.wrQLenPdf::8                        0                       # What write queue length does an incoming req see
system.mem_ctrl.wrQLenPdf::9                        0                       # What write queue length does an incoming req see
system.mem_ctrl.wrQLenPdf::10                       0                       # What write queue length does an incoming req see
system.mem_ctrl.wrQLenPdf::11                       0                       # What write queue length does an incoming req see
system.mem_ctrl.wrQLenPdf::12                       0                       # What write queue length does an incoming req see
system.mem_ctrl.wrQLenPdf::13                       0                       # What write queue length does an incoming req see
system.mem_ctrl.wrQLenPdf::14                       0                       # What write queue length does an incoming req see
system.mem_ctrl.wrQLenPdf::15                       0                       # What write queue length does an incoming req see
system.mem_ctrl.wrQLenPdf::16                       0                       # What write queue length does an incoming req see
system.mem_ctrl.wrQLenPdf::17                       0                       # What write queue length does an incoming req see
system.mem_ctrl.wrQLenPdf::18                       0                       # What write queue length does an incoming req see
system.mem_ctrl.wrQLenPdf::19                       0                       # What write queue length does an incoming req see
system.mem_ctrl.wrQLenPdf::20                       0                       # What write queue length does an incoming req see
system.mem_ctrl.wrQLenPdf::21                       0                       # What write queue length does an incoming req see
system.mem_ctrl.wrQLenPdf::22                       0                       # What write queue length does an incoming req see
system.mem_ctrl.wrQLenPdf::23                       0                       # What write queue length does an incoming req see
system.mem_ctrl.wrQLenPdf::24                       0                       # What write queue length does an incoming req see
system.mem_ctrl.wrQLenPdf::25                       0                       # What write queue length does an incoming req see
system.mem_ctrl.wrQLenPdf::26                       0                       # What write queue length does an incoming req see
system.mem_ctrl.wrQLenPdf::27                       0                       # What write queue length does an incoming req see
system.mem_ctrl.wrQLenPdf::28                       0                       # What write queue length does an incoming req see
system.mem_ctrl.wrQLenPdf::29                       0                       # What write queue length does an incoming req see
system.mem_ctrl.wrQLenPdf::30                       0                       # What write queue length does an incoming req see
system.mem_ctrl.wrQLenPdf::31                       0                       # What write queue length does an incoming req see
system.mem_ctrl.wrQLenPdf::32                       0                       # What write queue length does an incoming req see
system.mem_ctrl.wrQLenPdf::33                       0                       # What write queue length does an incoming req see
system.mem_ctrl.wrQLenPdf::34                       0                       # What write queue length does an incoming req see
system.mem_ctrl.wrQLenPdf::35                       0                       # What write queue length does an incoming req see
system.mem_ctrl.wrQLenPdf::36                       0                       # What write queue length does an incoming req see
system.mem_ctrl.wrQLenPdf::37                       0                       # What write queue length does an incoming req see
system.mem_ctrl.wrQLenPdf::38                       0                       # What write queue length does an incoming req see
system.mem_ctrl.wrQLenPdf::39                       0                       # What write queue length does an incoming req see
system.mem_ctrl.wrQLenPdf::40                       0                       # What write queue length does an incoming req see
system.mem_ctrl.wrQLenPdf::41                       0                       # What write queue length does an incoming req see
system.mem_ctrl.wrQLenPdf::42                       0                       # What write queue length does an incoming req see
system.mem_ctrl.wrQLenPdf::43                       0                       # What write queue length does an incoming req see
system.mem_ctrl.wrQLenPdf::44                       0                       # What write queue length does an incoming req see
system.mem_ctrl.wrQLenPdf::45                       0                       # What write queue length does an incoming req see
system.mem_ctrl.wrQLenPdf::46                       0                       # What write queue length does an incoming req see
system.mem_ctrl.wrQLenPdf::47                       0                       # What write queue length does an incoming req see
system.mem_ctrl.wrQLenPdf::48                       0                       # What write queue length does an incoming req see
system.mem_ctrl.wrQLenPdf::49                       0                       # What write queue length does an incoming req see
system.mem_ctrl.wrQLenPdf::50                       0                       # What write queue length does an incoming req see
system.mem_ctrl.wrQLenPdf::51                       0                       # What write queue length does an incoming req see
system.mem_ctrl.wrQLenPdf::52                       0                       # What write queue length does an incoming req see
system.mem_ctrl.wrQLenPdf::53                       0                       # What write queue length does an incoming req see
system.mem_ctrl.wrQLenPdf::54                       0                       # What write queue length does an incoming req see
system.mem_ctrl.wrQLenPdf::55                       0                       # What write queue length does an incoming req see
system.mem_ctrl.wrQLenPdf::56                       0                       # What write queue length does an incoming req see
system.mem_ctrl.wrQLenPdf::57                       0                       # What write queue length does an incoming req see
system.mem_ctrl.wrQLenPdf::58                       0                       # What write queue length does an incoming req see
system.mem_ctrl.wrQLenPdf::59                       0                       # What write queue length does an incoming req see
system.mem_ctrl.wrQLenPdf::60                       0                       # What write queue length does an incoming req see
system.mem_ctrl.wrQLenPdf::61                       0                       # What write queue length does an incoming req see
system.mem_ctrl.wrQLenPdf::62                       0                       # What write queue length does an incoming req see
system.mem_ctrl.wrQLenPdf::63                       0                       # What write queue length does an incoming req see
system.mem_ctrl.bytesPerActivate::samples         6223                       # Bytes accessed per row activation
system.mem_ctrl.bytesPerActivate::mean      97.876908                       # Bytes accessed per row activation
system.mem_ctrl.bytesPerActivate::gmean     85.270882                       # Bytes accessed per row activation
system.mem_ctrl.bytesPerActivate::stdev     84.958603                       # Bytes accessed per row activation
system.mem_ctrl.bytesPerActivate::0-127          3979     63.94%     63.94% # Bytes accessed per row activation
system.mem_ctrl.bytesPerActivate::128-255         2075     33.34%     97.28% # Bytes accessed per row activation
system.mem_ctrl.bytesPerActivate::256-383           38      0.61%     97.89% # Bytes accessed per row activation
system.mem_ctrl.bytesPerActivate::384-511           43      0.69%     98.59% # Bytes accessed per row activation
system.mem_ctrl.bytesPerActivate::512-639           51      0.82%     99.41% # Bytes accessed per row activation
system.mem_ctrl.bytesPerActivate::640-767            9      0.14%     99.55% # Bytes accessed per row activation
system.mem_ctrl.bytesPerActivate::768-895            5      0.08%     99.63% # Bytes accessed per row activation
system.mem_ctrl.bytesPerActivate::896-1023            6      0.10%     99.73% # Bytes accessed per row activation
system.mem_ctrl.bytesPerActivate::1024-1151           17      0.27%    100.00% # Bytes accessed per row activation
system.mem_ctrl.bytesPerActivate::total          6223                       # Bytes accessed per row activation
system.mem_ctrl.masterReadBytes::.cpu.inst        50048                       # Per-master bytes read from memory
system.mem_ctrl.masterReadBytes::.cpu.data       561216                       # Per-master bytes read from memory
system.mem_ctrl.masterReadRate::.cpu.inst 1093966.672596472548                       # Per-master bytes read from memory rate (Bytes/sec)
system.mem_ctrl.masterReadRate::.cpu.data 12267255.437338193879                       # Per-master bytes read from memory rate (Bytes/sec)
system.mem_ctrl.masterReadAccesses::.cpu.inst          782                       # Per-master read serviced memory accesses
system.mem_ctrl.masterReadAccesses::.cpu.data         8769                       # Per-master read serviced memory accesses
system.mem_ctrl.masterReadTotalLat::.cpu.inst     29305750                       # Per-master read total memory access latency
system.mem_ctrl.masterReadTotalLat::.cpu.data    394757750                       # Per-master read total memory access latency
system.mem_ctrl.masterReadAvgLat::.cpu.inst     37475.38                       # Per-master read average memory access latency
system.mem_ctrl.masterReadAvgLat::.cpu.data     45017.42                       # Per-master read average memory access latency
system.mem_ctrl.totQLat                     244982250                       # Total ticks spent queuing
system.mem_ctrl.totMemAccLat                424063500                       # Total ticks spent from burst creation until serviced by the DRAM
system.mem_ctrl.totBusLat                    47755000                       # Total ticks spent in databus transfers
system.mem_ctrl.avgQLat                      25649.91                       # Average queueing delay per DRAM burst
system.mem_ctrl.avgBusLat                     5000.00                       # Average bus latency per DRAM burst
system.mem_ctrl.avgMemAccLat                 44399.91                       # Average memory access latency per DRAM burst
system.mem_ctrl.avgRdBW                         13.36                       # Average DRAM read bandwidth in MiByte/s
system.mem_ctrl.avgWrBW                          0.00                       # Average achieved write bandwidth in MiByte/s
system.mem_ctrl.avgRdBWSys                      13.36                       # Average system read bandwidth in MiByte/s
system.mem_ctrl.avgWrBWSys                       0.00                       # Average system write bandwidth in MiByte/s
system.mem_ctrl.peakBW                       12800.00                       # Theoretical peak bandwidth in MiByte/s
system.mem_ctrl.busUtil                          0.10                       # Data bus utilization in percentage
system.mem_ctrl.busUtilRead                      0.10                       # Data bus utilization in percentage for reads
system.mem_ctrl.busUtilWrite                     0.00                       # Data bus utilization in percentage for writes
system.mem_ctrl.avgRdQLen                        1.00                       # Average read queue length when enqueuing
system.mem_ctrl.avgWrQLen                        0.00                       # Average write queue length when enqueuing
system.mem_ctrl.readRowHits                      3318                       # Number of row buffer hits during reads
system.mem_ctrl.writeRowHits                        0                       # Number of row buffer hits during writes
system.mem_ctrl.readRowHitRate                  34.74                       # Row buffer hit rate for reads
system.mem_ctrl.writeRowHitRate                   nan                       # Row buffer hit rate for writes
system.mem_ctrl.avgGap                     4789972.20                       # Average gap between requests
system.mem_ctrl.pageHitRate                     34.74                       # Row buffer hit rate, read and write combined
system.mem_ctrl_0.actEnergy                  22255380                       # Energy for activate commands per rank (pJ)
system.mem_ctrl_0.preEnergy                  11806245                       # Energy for precharge commands per rank (pJ)
system.mem_ctrl_0.readEnergy                 33922140                       # Energy for read commands per rank (pJ)
system.mem_ctrl_0.writeEnergy                       0                       # Energy for write commands per rank (pJ)
system.mem_ctrl_0.refreshEnergy          1823636880.000000                       # Energy for refresh commands per rank (pJ)
system.mem_ctrl_0.actBackEnergy             406109040                       # Energy for active background per rank (pJ)
system.mem_ctrl_0.preBackEnergy              42306720                       # Energy for precharge background per rank (pJ)
system.mem_ctrl_0.actPowerDownEnergy       6297242580                       # Energy for active power-down per rank (pJ)
system.mem_ctrl_0.prePowerDownEnergy       3189879360                       # Energy for precharge power-down per rank (pJ)
system.mem_ctrl_0.selfRefreshEnergy        5454784080                       # Energy for self refresh per rank (pJ)
system.mem_ctrl_0.totalEnergy             17282031495                       # Total energy per rank (pJ)
system.mem_ctrl_0.averagePower             377.756683                       # Core power per rank (mW)
system.mem_ctrl_0.totalIdleTime           44748310750                       # Total Idle time Per DRAM Rank
system.mem_ctrl_0.memoryStateTime::IDLE      29160500                       # Time in different power states
system.mem_ctrl_0.memoryStateTime::REF      771420000                       # Time in different power states
system.mem_ctrl_0.memoryStateTime::SREF   22631428250                       # Time in different power states
system.mem_ctrl_0.memoryStateTime::PRE_PDN   8307037250                       # Time in different power states
system.mem_ctrl_0.memoryStateTime::ACT      200176500                       # Time in different power states
system.mem_ctrl_0.memoryStateTime::ACT_PDN  13809886000                       # Time in different power states
system.mem_ctrl_1.actEnergy                  22248240                       # Energy for activate commands per rank (pJ)
system.mem_ctrl_1.preEnergy                  11810040                       # Energy for precharge commands per rank (pJ)
system.mem_ctrl_1.readEnergy                 34272000                       # Energy for read commands per rank (pJ)
system.mem_ctrl_1.writeEnergy                       0                       # Energy for write commands per rank (pJ)
system.mem_ctrl_1.refreshEnergy          1862359200.000000                       # Energy for refresh commands per rank (pJ)
system.mem_ctrl_1.actBackEnergy             412877790                       # Energy for active background per rank (pJ)
system.mem_ctrl_1.preBackEnergy              47115360                       # Energy for precharge background per rank (pJ)
system.mem_ctrl_1.actPowerDownEnergy       6279082380                       # Energy for active power-down per rank (pJ)
system.mem_ctrl_1.prePowerDownEnergy       3387714720                       # Energy for precharge power-down per rank (pJ)
system.mem_ctrl_1.selfRefreshEnergy        5356768920                       # Energy for self refresh per rank (pJ)
system.mem_ctrl_1.totalEnergy             17414343990                       # Total energy per rank (pJ)
system.mem_ctrl_1.averagePower             380.648816                       # Core power per rank (mW)
system.mem_ctrl_1.totalIdleTime           44720287750                       # Total Idle time Per DRAM Rank
system.mem_ctrl_1.memoryStateTime::IDLE      40696000                       # Time in different power states
system.mem_ctrl_1.memoryStateTime::REF      787800000                       # Time in different power states
system.mem_ctrl_1.memoryStateTime::SREF   22128671000                       # Time in different power states
system.mem_ctrl_1.memoryStateTime::PRE_PDN   8821997250                       # Time in different power states
system.mem_ctrl_1.memoryStateTime::ACT      200120000                       # Time in different power states
system.mem_ctrl_1.memoryStateTime::ACT_PDN  13769824250                       # Time in different power states
system.pwrStateResidencyTicks::UNDEFINED  45749108500                       # Cumulative time (in ticks) in various power states
system.cpu.branchPred.lookups                12332728                       # Number of BP lookups
system.cpu.branchPred.condPredicted          12332728                       # Number of conditional branches predicted
system.cpu.branchPred.condIncorrect            264208                       # Number of conditional branches incorrect
system.cpu.branchPred.BTBLookups             11232518                       # Number of BTB lookups
system.cpu.branchPred.BTBHits                       0                       # Number of BTB hits
system.cpu.branchPred.BTBCorrect                    0                       # Number of correct BTB predictions (this stat may not work properly.
system.cpu.branchPred.BTBHitPct              0.000000                       # BTB Hit Percentage
system.cpu.branchPred.usedRAS                  373635                       # Number of times the RAS was used to get a target.
system.cpu.branchPred.RASInCorrect                235                       # Number of incorrect RAS predictions.
system.cpu.branchPred.indirectLookups        11232518                       # Number of indirect predictor lookups.
system.cpu.branchPred.indirectHits            5572893                       # Number of indirect target hits.
system.cpu.branchPred.indirectMisses          5659625                       # Number of indirect misses.
system.cpu.branchPredindirectMispredicted       263334                       # Number of mispredicted indirect branches.
system.cpu.dtb.walker.pwrStateResidencyTicks::UNDEFINED  45749108500                       # Cumulative time (in ticks) in various power states
system.cpu.dtb.rdAccesses                    19424568                       # TLB accesses on read requests
system.cpu.dtb.wrAccesses                     8710954                       # TLB accesses on write requests
system.cpu.dtb.rdMisses                           414                       # TLB misses on read requests
system.cpu.dtb.wrMisses                           312                       # TLB misses on write requests
system.cpu.apic_clk_domain.clock                 8000                       # Clock period in ticks
system.cpu.interrupts.pwrStateResidencyTicks::UNDEFINED  45749108500                       # Cumulative time (in ticks) in various power states
system.cpu.itb.walker.pwrStateResidencyTicks::UNDEFINED  45749108500                       # Cumulative time (in ticks) in various power states
system.cpu.itb.rdAccesses                           0                       # TLB accesses on read requests
system.cpu.itb.wrAccesses                     9218940                       # TLB accesses on write requests
system.cpu.itb.rdMisses                             0                       # TLB misses on read requests
system.cpu.itb.wrMisses                           104                       # TLB misses on write requests
system.cpu.workload.numSyscalls                    36                       # Number of system calls
system.cpu.pwrStateResidencyTicks::ON     45749108500                       # Cumulative time (in ticks) in various power states
system.cpu.numCycles                         91498218                       # number of cpu cycles simulated
system.cpu.numWorkItemsStarted                      0                       # number of work items this cpu started
system.cpu.numWorkItemsCompleted                    0                       # number of work items this cpu completed
system.cpu.fetch.icacheStallCycles             311317                       # Number of cycles fetch is stalled on an Icache miss
system.cpu.fetch.Insts                       71554746                       # Number of instructions fetch has processed
system.cpu.fetch.Branches                    12332728                       # Number of branches that fetch encountered
system.cpu.fetch.predictedBranches            5946528                       # Number of branches that fetch has predicted taken
system.cpu.fetch.Cycles                      90883997                       # Number of cycles fetch has run and was not squashing or blocked
system.cpu.fetch.SquashCycles                  528910                       # Number of cycles fetch has spent squashing
system.cpu.fetch.MiscStallCycles                   23                       # Number of cycles fetch has spent waiting on interrupts, or bad addresses, or out of MSHRs
system.cpu.fetch.PendingTrapStallCycles           771                       # Number of stall cycles due to pending traps
system.cpu.fetch.PendingQuiesceStallCycles           13                       # Number of stall cycles due to pending quiesce instructions
system.cpu.fetch.CacheLines                   9218893                       # Number of cache lines fetched
system.cpu.fetch.IcacheSquashes                   516                       # Number of outstanding Icache misses that were squashed
system.cpu.fetch.rateDist::samples           91460576                       # Number of instructions fetched each cycle (Total)
system.cpu.fetch.rateDist::mean              1.379233                       # Number of instructions fetched each cycle (Total)
system.cpu.fetch.rateDist::stdev             1.791731                       # Number of instructions fetched each cycle (Total)
system.cpu.fetch.rateDist::underflows               0      0.00%      0.00% # Number of instructions fetched each cycle (Total)
system.cpu.fetch.rateDist::0                 54389981     59.47%     59.47% # Number of instructions fetched each cycle (Total)
system.cpu.fetch.rateDist::1                  3748929      4.10%     63.57% # Number of instructions fetched each cycle (Total)
system.cpu.fetch.rateDist::2                  3467578      3.79%     67.36% # Number of instructions fetched each cycle (Total)
system.cpu.fetch.rateDist::3                  3954975      4.32%     71.68% # Number of instructions fetched each cycle (Total)
system.cpu.fetch.rateDist::4                 25899113     28.32%    100.00% # Number of instructions fetched each cycle (Total)
system.cpu.fetch.rateDist::overflows                0      0.00%    100.00% # Number of instructions fetched each cycle (Total)
system.cpu.fetch.rateDist::min_value                0                       # Number of instructions fetched each cycle (Total)
system.cpu.fetch.rateDist::max_value                4                       # Number of instructions fetched each cycle (Total)
system.cpu.fetch.rateDist::total             91460576                       # Number of instructions fetched each cycle (Total)
system.cpu.fetch.branchRate                  0.134787                       # Number of branch fetches per cycle
system.cpu.fetch.rate                        0.782034                       # Number of inst fetches per cycle
system.cpu.decode.IdleCycles                 11468418                       # Number of cycles decode is idle
system.cpu.decode.BlockedCycles              50317396                       # Number of cycles decode is blocked
system.cpu.decode.RunCycles                  13028720                       # Number of cycles decode is running
system.cpu.decode.UnblockCycles              16381587                       # Number of cycles decode is unblocking
system.cpu.decode.SquashCycles                 264455                       # Number of cycles decode is squashing
system.cpu.decode.DecodedInsts              115250058                       # Number of instructions handled by decode
system.cpu.decode.SquashedInsts                875156                       # Number of squashed instructions handled by decode
system.cpu.rename.SquashCycles                 264455                       # Number of cycles rename is squashing
system.cpu.rename.IdleCycles                 20143224                       # Number of cycles rename is idle
system.cpu.rename.BlockCycles                26050730                       # Number of cycles rename is blocking
system.cpu.rename.serializeStallCycles           1733                       # count of cycles rename stalled for serializing inst
system.cpu.rename.RunCycles                  19637557                       # Number of cycles rename is running
system.cpu.rename.UnblockCycles              25362877                       # Number of cycles rename is unblocking
system.cpu.rename.RenamedInsts              114353564                       # Number of instructions processed by rename
system.cpu.rename.SquashedInsts                174333                       # Number of squashed instructions processed by rename
system.cpu.rename.ROBFullEvents              22426808                       # Number of times rename has blocked due to ROB full
system.cpu.rename.SQFullEvents                 370488                       # Number of times rename has blocked due to SQ full
system.cpu.rename.RenamedOperands           135645401                       # Number of destination operands rename has renamed
system.cpu.rename.RenameLookups             280699419                       # Number of register rename lookups that rename has made
system.cpu.rename.int_rename_lookups        175927732                       # Number of integer rename lookups
system.cpu.rename.fp_rename_lookups            266321                       # Number of floating rename lookups
system.cpu.rename.CommittedMaps             130921918                       # Number of HB maps that are committed
system.cpu.rename.UndoneMaps                  4723483                       # Number of HB maps that are undone due to squashing
system.cpu.rename.serializingInsts                 45                       # count of serializing insts renamed
system.cpu.rename.tempSerializingInsts             44                       # count of temporary serializing insts renamed
system.cpu.rename.skidInsts                  49743586                       # count of insts added to the skid buffer
system.cpu.memDep0.insertedLoads             19571965                       # Number of loads inserted to the mem dependence unit.
system.cpu.memDep0.insertedStores             8915925                       # Number of stores inserted to the mem dependence unit.
system.cpu.memDep0.conflictingLoads           3544217                       # Number of conflicting loads.
system.cpu.memDep0.conflictingStores          1042395                       # Number of conflicting stores.
system.cpu.iq.iqInstsAdded                  113540010                       # Number of instructions added to the IQ (excludes non-spec)
system.cpu.iq.iqNonSpecInstsAdded                 156                       # Number of non-speculative instructions added to the IQ
system.cpu.iq.iqInstsIssued                 112836497                       # Number of instructions issued
system.cpu.iq.iqSquashedInstsIssued             58183                       # Number of squashed instructions issued
system.cpu.iq.iqSquashedInstsExamined         3500480                       # Number of squashed instructions iterated over during squash; mainly for profiling
system.cpu.iq.iqSquashedOperandsExamined      3538739                       # Number of squashed operands that are examined and possibly removed from graph
system.cpu.iq.iqSquashedNonSpecRemoved            120                       # Number of squashed non-spec instructions that were removed
system.cpu.iq.issued_per_cycle::samples      91460576                       # Number of insts issued each cycle
system.cpu.iq.issued_per_cycle::mean         1.233717                       # Number of insts issued each cycle
system.cpu.iq.issued_per_cycle::stdev        0.940306                       # Number of insts issued each cycle
system.cpu.iq.issued_per_cycle::underflows            0      0.00%      0.00% # Number of insts issued each cycle
system.cpu.iq.issued_per_cycle::0            23828150     26.05%     26.05% # Number of insts issued each cycle
system.cpu.iq.issued_per_cycle::1            30742208     33.61%     59.67% # Number of insts issued each cycle
system.cpu.iq.issued_per_cycle::2            28677933     31.36%     91.02% # Number of insts issued each cycle
system.cpu.iq.issued_per_cycle::3             8110717      8.87%     99.89% # Number of insts issued each cycle
system.cpu.iq.issued_per_cycle::4              101568      0.11%    100.00% # Number of insts issued each cycle
system.cpu.iq.issued_per_cycle::overflows            0      0.00%    100.00% # Number of insts issued each cycle
system.cpu.iq.issued_per_cycle::min_value            0                       # Number of insts issued each cycle
system.cpu.iq.issued_per_cycle::max_value            4                       # Number of insts issued each cycle
system.cpu.iq.issued_per_cycle::total        91460576                       # Number of insts issued each cycle
system.cpu.iq.fu_full::No_OpClass                   0      0.00%      0.00% # attempts to use FU when none available
system.cpu.iq.fu_full::IntAlu                 9373951     55.93%     55.93% # attempts to use FU when none available
system.cpu.iq.fu_full::IntMult                      0      0.00%     55.93% # attempts to use FU when none available
system.cpu.iq.fu_full::IntDiv                       0      0.00%     55.93% # attempts to use FU when none available
system.cpu.iq.fu_full::FloatAdd                     0      0.00%     55.93% # attempts to use FU when none available
system.cpu.iq.fu_full::FloatCmp                     0      0.00%     55.93% # attempts to use FU when none available
system.cpu.iq.fu_full::FloatCvt                     0      0.00%     55.93% # attempts to use FU when none available
system.cpu.iq.fu_full::FloatMult                    0      0.00%     55.93% # attempts to use FU when none available
system.cpu.iq.fu_full::FloatMultAcc                 0      0.00%     55.93% # attempts to use FU when none available
system.cpu.iq.fu_full::FloatDiv                     0      0.00%     55.93% # attempts to use FU when none available
system.cpu.iq.fu_full::FloatMisc                    0      0.00%     55.93% # attempts to use FU when none available
system.cpu.iq.fu_full::FloatSqrt                    0      0.00%     55.93% # attempts to use FU when none available
system.cpu.iq.fu_full::SimdAdd                    267      0.00%     55.93% # attempts to use FU when none available
system.cpu.iq.fu_full::SimdAddAcc                   0      0.00%     55.93% # attempts to use FU when none available
system.cpu.iq.fu_full::SimdAlu                     66      0.00%     55.94% # attempts to use FU when none available
system.cpu.iq.fu_full::SimdCmp                      0      0.00%     55.94% # attempts to use FU when none available
system.cpu.iq.fu_full::SimdCvt                     31      0.00%     55.94% # attempts to use FU when none available
system.cpu.iq.fu_full::SimdMisc                   132      0.00%     55.94% # attempts to use FU when none available
system.cpu.iq.fu_full::SimdMult                     0      0.00%     55.94% # attempts to use FU when none available
system.cpu.iq.fu_full::SimdMultAcc                  0      0.00%     55.94% # attempts to use FU when none available
system.cpu.iq.fu_full::SimdShift                  124      0.00%     55.94% # attempts to use FU when none available
system.cpu.iq.fu_full::SimdShiftAcc                 0      0.00%     55.94% # attempts to use FU when none available
system.cpu.iq.fu_full::SimdSqrt                     0      0.00%     55.94% # attempts to use FU when none available
system.cpu.iq.fu_full::SimdFloatAdd                 0      0.00%     55.94% # attempts to use FU when none available
system.cpu.iq.fu_full::SimdFloatAlu                 0      0.00%     55.94% # attempts to use FU when none available
system.cpu.iq.fu_full::SimdFloatCmp                 0      0.00%     55.94% # attempts to use FU when none available
system.cpu.iq.fu_full::SimdFloatCvt                 0      0.00%     55.94% # attempts to use FU when none available
system.cpu.iq.fu_full::SimdFloatDiv                 0      0.00%     55.94% # attempts to use FU when none available
system.cpu.iq.fu_full::SimdFloatMisc                0      0.00%     55.94% # attempts to use FU when none available
system.cpu.iq.fu_full::SimdFloatMult                0      0.00%     55.94% # attempts to use FU when none available
system.cpu.iq.fu_full::SimdFloatMultAcc             0      0.00%     55.94% # attempts to use FU when none available
system.cpu.iq.fu_full::SimdFloatSqrt                0      0.00%     55.94% # attempts to use FU when none available
system.cpu.iq.fu_full::SimdAes                      0      0.00%     55.94% # attempts to use FU when none available
system.cpu.iq.fu_full::SimdAesMix                   0      0.00%     55.94% # attempts to use FU when none available
system.cpu.iq.fu_full::SimdSha1Hash                 0      0.00%     55.94% # attempts to use FU when none available
system.cpu.iq.fu_full::SimdSha1Hash2                0      0.00%     55.94% # attempts to use FU when none available
system.cpu.iq.fu_full::SimdSha256Hash               0      0.00%     55.94% # attempts to use FU when none available
system.cpu.iq.fu_full::SimdSha256Hash2              0      0.00%     55.94% # attempts to use FU when none available
system.cpu.iq.fu_full::SimdShaSigma2                0      0.00%     55.94% # attempts to use FU when none available
system.cpu.iq.fu_full::SimdShaSigma3                0      0.00%     55.94% # attempts to use FU when none available
system.cpu.iq.fu_full::MemRead                6058102     36.15%     92.08% # attempts to use FU when none available
system.cpu.iq.fu_full::MemWrite               1326492      7.92%    100.00% # attempts to use FU when none available
system.cpu.iq.fu_full::FloatMemRead                 0      0.00%    100.00% # attempts to use FU when none available
system.cpu.iq.fu_full::FloatMemWrite                0      0.00%    100.00% # attempts to use FU when none available
system.cpu.iq.fu_full::IprAccess                    0      0.00%    100.00% # attempts to use FU when none available
system.cpu.iq.fu_full::InstPrefetch                 0      0.00%    100.00% # attempts to use FU when none available
system.cpu.iq.FU_type_0::No_OpClass            212143      0.19%      0.19% # Type of FU issued
system.cpu.iq.FU_type_0::IntAlu              83628823     74.12%     74.30% # Type of FU issued
system.cpu.iq.FU_type_0::IntMult               646194      0.57%     74.88% # Type of FU issued
system.cpu.iq.FU_type_0::IntDiv                    30      0.00%     74.88% # Type of FU issued
system.cpu.iq.FU_type_0::FloatAdd               65557      0.06%     74.93% # Type of FU issued
system.cpu.iq.FU_type_0::FloatCmp                   0      0.00%     74.93% # Type of FU issued
system.cpu.iq.FU_type_0::FloatCvt                   0      0.00%     74.93% # Type of FU issued
system.cpu.iq.FU_type_0::FloatMult                  0      0.00%     74.93% # Type of FU issued
system.cpu.iq.FU_type_0::FloatMultAcc               0      0.00%     74.93% # Type of FU issued
system.cpu.iq.FU_type_0::FloatDiv                   0      0.00%     74.93% # Type of FU issued
system.cpu.iq.FU_type_0::FloatMisc                  0      0.00%     74.93% # Type of FU issued
system.cpu.iq.FU_type_0::FloatSqrt                  0      0.00%     74.93% # Type of FU issued
system.cpu.iq.FU_type_0::SimdAdd                  378      0.00%     74.93% # Type of FU issued
system.cpu.iq.FU_type_0::SimdAddAcc                 0      0.00%     74.93% # Type of FU issued
system.cpu.iq.FU_type_0::SimdAlu                   98      0.00%     74.93% # Type of FU issued
system.cpu.iq.FU_type_0::SimdCmp                    0      0.00%     74.93% # Type of FU issued
system.cpu.iq.FU_type_0::SimdCvt                  144      0.00%     74.93% # Type of FU issued
system.cpu.iq.FU_type_0::SimdMisc                 257      0.00%     74.93% # Type of FU issued
system.cpu.iq.FU_type_0::SimdMult                   0      0.00%     74.93% # Type of FU issued
system.cpu.iq.FU_type_0::SimdMultAcc                0      0.00%     74.93% # Type of FU issued
system.cpu.iq.FU_type_0::SimdShift                187      0.00%     74.93% # Type of FU issued
system.cpu.iq.FU_type_0::SimdShiftAcc               0      0.00%     74.93% # Type of FU issued
system.cpu.iq.FU_type_0::SimdSqrt                   0      0.00%     74.93% # Type of FU issued
system.cpu.iq.FU_type_0::SimdFloatAdd               0      0.00%     74.93% # Type of FU issued
system.cpu.iq.FU_type_0::SimdFloatAlu               0      0.00%     74.93% # Type of FU issued
system.cpu.iq.FU_type_0::SimdFloatCmp               0      0.00%     74.93% # Type of FU issued
system.cpu.iq.FU_type_0::SimdFloatCvt               0      0.00%     74.93% # Type of FU issued
system.cpu.iq.FU_type_0::SimdFloatDiv               0      0.00%     74.93% # Type of FU issued
system.cpu.iq.FU_type_0::SimdFloatMisc              0      0.00%     74.93% # Type of FU issued
system.cpu.iq.FU_type_0::SimdFloatMult              0      0.00%     74.93% # Type of FU issued
system.cpu.iq.FU_type_0::SimdFloatMultAcc            0      0.00%     74.93% # Type of FU issued
system.cpu.iq.FU_type_0::SimdFloatSqrt              0      0.00%     74.93% # Type of FU issued
system.cpu.iq.FU_type_0::SimdAes                    0      0.00%     74.93% # Type of FU issued
system.cpu.iq.FU_type_0::SimdAesMix                 0      0.00%     74.93% # Type of FU issued
system.cpu.iq.FU_type_0::SimdSha1Hash               0      0.00%     74.93% # Type of FU issued
system.cpu.iq.FU_type_0::SimdSha1Hash2              0      0.00%     74.93% # Type of FU issued
system.cpu.iq.FU_type_0::SimdSha256Hash             0      0.00%     74.93% # Type of FU issued
system.cpu.iq.FU_type_0::SimdSha256Hash2            0      0.00%     74.93% # Type of FU issued
system.cpu.iq.FU_type_0::SimdShaSigma2              0      0.00%     74.93% # Type of FU issued
system.cpu.iq.FU_type_0::SimdShaSigma3              0      0.00%     74.93% # Type of FU issued
system.cpu.iq.FU_type_0::MemRead             19250710     17.06%     92.00% # Type of FU issued
system.cpu.iq.FU_type_0::MemWrite             8507072      7.54%     99.53% # Type of FU issued
system.cpu.iq.FU_type_0::FloatMemRead          262270      0.23%     99.77% # Type of FU issued
system.cpu.iq.FU_type_0::FloatMemWrite         262634      0.23%    100.00% # Type of FU issued
system.cpu.iq.FU_type_0::IprAccess                  0      0.00%    100.00% # Type of FU issued
system.cpu.iq.FU_type_0::InstPrefetch               0      0.00%    100.00% # Type of FU issued
system.cpu.iq.FU_type_0::total              112836497                       # Type of FU issued
system.cpu.iq.rate                           1.233210                       # Inst issue rate
system.cpu.iq.fu_busy_cnt                    16759165                       # FU busy when requested
system.cpu.iq.fu_busy_rate                   0.148526                       # FU busy rate (busy events/executed inst)
system.cpu.iq.int_inst_queue_reads          332766109                       # Number of integer instruction queue reads
system.cpu.iq.int_inst_queue_writes         116448685                       # Number of integer instruction queue writes
system.cpu.iq.int_inst_queue_wakeup_accesses    111619057                       # Number of integer instruction queue wakeup accesses
system.cpu.iq.fp_inst_queue_reads             1184809                       # Number of floating instruction queue reads
system.cpu.iq.fp_inst_queue_writes             592200                       # Number of floating instruction queue writes
system.cpu.iq.fp_inst_queue_wakeup_accesses       592014                       # Number of floating instruction queue wakeup accesses
system.cpu.iq.vec_inst_queue_reads                  0                       # Number of vector instruction queue reads
system.cpu.iq.vec_inst_queue_writes                 0                       # Number of vector instruction queue writes
system.cpu.iq.vec_inst_queue_wakeup_accesses            0                       # Number of vector instruction queue wakeup accesses
system.cpu.iq.int_alu_accesses              128790768                       # Number of integer alu accesses
system.cpu.iq.fp_alu_accesses                  592751                       # Number of floating point alu accesses
system.cpu.iq.vec_alu_accesses                      0                       # Number of vector alu accesses
system.cpu.iew.lsq.thread0.forwLoads          1510853                       # Number of loads that had data forwarded from stores
system.cpu.iew.lsq.thread0.invAddrLoads             0                       # Number of loads ignored due to an invalid address
system.cpu.iew.lsq.thread0.squashedLoads       522083                       # Number of loads squashed
system.cpu.iew.lsq.thread0.ignoredResponses           72                       # Number of memory responses ignored because the instruction is squashed
system.cpu.iew.lsq.thread0.memOrderViolation          239                       # Number of memory ordering violations
system.cpu.iew.lsq.thread0.squashedStores       264401                       # Number of stores squashed
system.cpu.iew.lsq.thread0.invAddrSwpfs             0                       # Number of software prefetches ignored due to an invalid address
system.cpu.iew.lsq.thread0.blockedLoads             0                       # Number of blocked loads due to partial load-store forwarding
system.cpu.iew.lsq.thread0.rescheduledLoads            1                       # Number of loads that were rescheduled
system.cpu.iew.lsq.thread0.cacheBlocked            15                       # Number of times an access to memory failed due to the cache being blocked
system.cpu.iew.iewIdleCycles                        0                       # Number of cycles IEW is idle
system.cpu.iew.iewSquashCycles                 264455                       # Number of cycles IEW is squashing
system.cpu.iew.iewBlockCycles                       0                       # Number of cycles IEW is blocking
system.cpu.iew.iewUnblockCycles                324245                       # Number of cycles IEW is unblocking
system.cpu.iew.iewDispatchedInsts           113540166                       # Number of instructions dispatched to IQ
system.cpu.iew.iewDispSquashedInsts            426192                       # Number of squashed instructions skipped by dispatch
system.cpu.iew.iewDispLoadInsts              19571965                       # Number of dispatched load instructions
system.cpu.iew.iewDispStoreInsts              8915925                       # Number of dispatched store instructions
system.cpu.iew.iewDispNonSpecInsts                 81                       # Number of dispatched non-speculative instructions
system.cpu.iew.iewIQFullEvents                      0                       # Number of times the IQ has become full, causing a stall
system.cpu.iew.iewLSQFullEvents                322798                       # Number of times the LSQ has become full, causing a stall
system.cpu.iew.memOrderViolationEvents            239                       # Number of memory order violations
system.cpu.iew.predictedTakenIncorrect            827                       # Number of branches that were predicted taken incorrectly
system.cpu.iew.predictedNotTakenIncorrect       263610                       # Number of branches that were predicted not taken incorrectly
system.cpu.iew.branchMispredicts               264437                       # Number of branch mispredicts detected at execute
system.cpu.iew.iewExecutedInsts             112277592                       # Number of executed instructions
system.cpu.iew.iewExecLoadInsts              19424554                       # Number of load instructions executed
system.cpu.iew.iewExecSquashedInsts            558905                       # Number of squashed instructions skipped in execute
system.cpu.iew.exec_swp                             0                       # number of swp insts executed
system.cpu.iew.exec_nop                             0                       # number of nop insts executed
system.cpu.iew.exec_refs                     28135506                       # number of memory reference insts executed
system.cpu.iew.exec_branches                 10729243                       # Number of branches executed
system.cpu.iew.exec_stores                    8710952                       # Number of stores executed
system.cpu.iew.exec_rate                     1.227101                       # Inst execution rate
system.cpu.iew.wb_sent                      112211241                       # cumulative count of insts sent to commit
system.cpu.iew.wb_count                     112211071                       # cumulative count of insts written-back
system.cpu.iew.wb_producers                  78556189                       # num instructions producing a value
system.cpu.iew.wb_consumers                 107065516                       # num instructions consuming a value
system.cpu.iew.wb_rate                       1.226374                       # insts written-back per cycle
system.cpu.iew.wb_fanout                     0.733721                       # average fanout of values written-back
system.cpu.commit.commitSquashedInsts         3213714                       # The number of squashed insts skipped by commit
system.cpu.commit.commitNonSpecStalls              36                       # The number of times commit has been forced to stall to communicate backwards
system.cpu.commit.branchMispredicts            264223                       # The number of times a branch was mispredicted
system.cpu.commit.committed_per_cycle::samples     91196121                       # Number of insts commited each cycle
system.cpu.commit.committed_per_cycle::mean     1.206627                       # Number of insts commited each cycle
system.cpu.commit.committed_per_cycle::stdev     1.447737                       # Number of insts commited each cycle
system.cpu.commit.committed_per_cycle::underflows            0      0.00%      0.00% # Number of insts commited each cycle
system.cpu.commit.committed_per_cycle::0     44285084     48.56%     48.56% # Number of insts commited each cycle
system.cpu.commit.committed_per_cycle::1     16520946     18.12%     66.68% # Number of insts commited each cycle
system.cpu.commit.committed_per_cycle::2      8723876      9.57%     76.24% # Number of insts commited each cycle
system.cpu.commit.committed_per_cycle::3     10593873     11.62%     87.86% # Number of insts commited each cycle
system.cpu.commit.committed_per_cycle::4     11072342     12.14%    100.00% # Number of insts commited each cycle
system.cpu.commit.committed_per_cycle::overflows            0      0.00%    100.00% # Number of insts commited each cycle
system.cpu.commit.committed_per_cycle::min_value            0                       # Number of insts commited each cycle
system.cpu.commit.committed_per_cycle::max_value            4                       # Number of insts commited each cycle
system.cpu.commit.committed_per_cycle::total     91196121                       # Number of insts commited each cycle
system.cpu.commit.committedInsts             62525833                       # Number of instructions committed
system.cpu.commit.committedOps              110039685                       # Number of ops (including micro ops) committed
system.cpu.commit.swp_count                         0                       # Number of s/w prefetches committed
system.cpu.commit.refs                       27701406                       # Number of memory references committed
system.cpu.commit.loads                      19049882                       # Number of loads committed
system.cpu.commit.membars                           0                       # Number of memory barriers committed
system.cpu.commit.branches                   10575287                       # Number of branches committed
system.cpu.commit.vec_insts                         0                       # Number of committed Vector instructions.
system.cpu.commit.fp_insts                     591928                       # Number of committed floating point instructions.
system.cpu.commit.int_insts                 109906472                       # Number of committed integer instructions.
system.cpu.commit.function_calls               329514                       # Number of function calls committed.
system.cpu.commit.op_class_0::No_OpClass        66156      0.06%      0.06% # Class of committed instruction
system.cpu.commit.op_class_0::IntAlu         81559305     74.12%     74.18% # Class of committed instruction
system.cpu.commit.op_class_0::IntMult          646190      0.59%     74.77% # Class of committed instruction
system.cpu.commit.op_class_0::IntDiv               28      0.00%     74.77% # Class of committed instruction
system.cpu.commit.op_class_0::FloatAdd          65551      0.06%     74.83% # Class of committed instruction
system.cpu.commit.op_class_0::FloatCmp              0      0.00%     74.83% # Class of committed instruction
system.cpu.commit.op_class_0::FloatCvt              0      0.00%     74.83% # Class of committed instruction
system.cpu.commit.op_class_0::FloatMult             0      0.00%     74.83% # Class of committed instruction
system.cpu.commit.op_class_0::FloatMultAcc            0      0.00%     74.83% # Class of committed instruction
system.cpu.commit.op_class_0::FloatDiv              0      0.00%     74.83% # Class of committed instruction
system.cpu.commit.op_class_0::FloatMisc             0      0.00%     74.83% # Class of committed instruction
system.cpu.commit.op_class_0::FloatSqrt             0      0.00%     74.83% # Class of committed instruction
system.cpu.commit.op_class_0::SimdAdd             374      0.00%     74.83% # Class of committed instruction
system.cpu.commit.op_class_0::SimdAddAcc            0      0.00%     74.83% # Class of committed instruction
system.cpu.commit.op_class_0::SimdAlu              94      0.00%     74.83% # Class of committed instruction
system.cpu.commit.op_class_0::SimdCmp               0      0.00%     74.83% # Class of committed instruction
system.cpu.commit.op_class_0::SimdCvt             140      0.00%     74.83% # Class of committed instruction
system.cpu.commit.op_class_0::SimdMisc            255      0.00%     74.83% # Class of committed instruction
system.cpu.commit.op_class_0::SimdMult              0      0.00%     74.83% # Class of committed instruction
system.cpu.commit.op_class_0::SimdMultAcc            0      0.00%     74.83% # Class of committed instruction
system.cpu.commit.op_class_0::SimdShift           186      0.00%     74.83% # Class of committed instruction
system.cpu.commit.op_class_0::SimdShiftAcc            0      0.00%     74.83% # Class of committed instruction
system.cpu.commit.op_class_0::SimdSqrt              0      0.00%     74.83% # Class of committed instruction
system.cpu.commit.op_class_0::SimdFloatAdd            0      0.00%     74.83% # Class of committed instruction
system.cpu.commit.op_class_0::SimdFloatAlu            0      0.00%     74.83% # Class of committed instruction
system.cpu.commit.op_class_0::SimdFloatCmp            0      0.00%     74.83% # Class of committed instruction
system.cpu.commit.op_class_0::SimdFloatCvt            0      0.00%     74.83% # Class of committed instruction
system.cpu.commit.op_class_0::SimdFloatDiv            0      0.00%     74.83% # Class of committed instruction
system.cpu.commit.op_class_0::SimdFloatMisc            0      0.00%     74.83% # Class of committed instruction
system.cpu.commit.op_class_0::SimdFloatMult            0      0.00%     74.83% # Class of committed instruction
system.cpu.commit.op_class_0::SimdFloatMultAcc            0      0.00%     74.83% # Class of committed instruction
system.cpu.commit.op_class_0::SimdFloatSqrt            0      0.00%     74.83% # Class of committed instruction
system.cpu.commit.op_class_0::SimdAes               0      0.00%     74.83% # Class of committed instruction
system.cpu.commit.op_class_0::SimdAesMix            0      0.00%     74.83% # Class of committed instruction
system.cpu.commit.op_class_0::SimdSha1Hash            0      0.00%     74.83% # Class of committed instruction
system.cpu.commit.op_class_0::SimdSha1Hash2            0      0.00%     74.83% # Class of committed instruction
system.cpu.commit.op_class_0::SimdSha256Hash            0      0.00%     74.83% # Class of committed instruction
system.cpu.commit.op_class_0::SimdSha256Hash2            0      0.00%     74.83% # Class of committed instruction
system.cpu.commit.op_class_0::SimdShaSigma2            0      0.00%     74.83% # Class of committed instruction
system.cpu.commit.op_class_0::SimdShaSigma3            0      0.00%     74.83% # Class of committed instruction
system.cpu.commit.op_class_0::MemRead        18787650     17.07%     91.90% # Class of committed instruction
system.cpu.commit.op_class_0::MemWrite        8388953      7.62%     99.52% # Class of committed instruction
system.cpu.commit.op_class_0::FloatMemRead       262232      0.24%     99.76% # Class of committed instruction
system.cpu.commit.op_class_0::FloatMemWrite       262571      0.24%    100.00% # Class of committed instruction
system.cpu.commit.op_class_0::IprAccess             0      0.00%    100.00% # Class of committed instruction
system.cpu.commit.op_class_0::InstPrefetch            0      0.00%    100.00% # Class of committed instruction
system.cpu.commit.op_class_0::total         110039685                       # Class of committed instruction
system.cpu.commit.bw_lim_events              11072342                       # number cycles where commit BW limit reached
system.cpu.rob.rob_reads                    193377178                       # The number of ROB reads
system.cpu.rob.rob_writes                   226771253                       # The number of ROB writes
system.cpu.timesIdled                             455                       # Number of times that the entire CPU went into an idle state and unscheduled itself
system.cpu.idleCycles                           37642                       # Total number of cycles that the CPU has spent unscheduled due to idling
system.cpu.committedInsts                    62525833                       # Number of Instructions Simulated
system.cpu.committedOps                     110039685                       # Number of Ops (including micro ops) Simulated
system.cpu.cpi                               1.463367                       # CPI: Cycles Per Instruction
system.cpu.cpi_total                         1.463367                       # CPI: Total CPI of All Threads
system.cpu.ipc                               0.683356                       # IPC: Instructions Per Cycle
system.cpu.ipc_total                         0.683356                       # IPC: Total IPC of All Threads
system.cpu.int_regfile_reads                171837920                       # number of integer regfile reads
system.cpu.int_regfile_writes                92875775                       # number of integer regfile writes
system.cpu.fp_regfile_reads                    266251                       # number of floating regfile reads
system.cpu.fp_regfile_writes                   329320                       # number of floating regfile writes
system.cpu.cc_regfile_reads                  51393353                       # number of cc regfile reads
system.cpu.cc_regfile_writes                 40100295                       # number of cc regfile writes
system.cpu.misc_regfile_reads                50548844                       # number of misc regfile reads
system.cpu.dcache.tags.pwrStateResidencyTicks::UNDEFINED  45749108500                       # Cumulative time (in ticks) in various power states
system.cpu.dcache.tags.tagsinuse           511.482409                       # Cycle average of tags in use
system.cpu.dcache.tags.total_refs            26564977                       # Total number of references to valid blocks.
system.cpu.dcache.tags.sampled_refs             15198                       # Sample count of references to valid blocks.
system.cpu.dcache.tags.avg_refs           1747.925846                       # Average number of references to valid blocks.
system.cpu.dcache.tags.warmup_cycle            169500                       # Cycle when the warmup percentage was hit.
system.cpu.dcache.tags.occ_blocks::.cpu.data   511.482409                       # Average occupied blocks per requestor
system.cpu.dcache.tags.occ_percent::.cpu.data     0.998989                       # Average percentage of cache occupancy
system.cpu.dcache.tags.occ_percent::total     0.998989                       # Average percentage of cache occupancy
system.cpu.dcache.tags.occ_task_id_blocks::1024          512                       # Occupied blocks per task id
system.cpu.dcache.tags.age_task_id_blocks_1024::0           87                       # Occupied blocks per task id
system.cpu.dcache.tags.age_task_id_blocks_1024::1          423                       # Occupied blocks per task id
system.cpu.dcache.tags.age_task_id_blocks_1024::4            2                       # Occupied blocks per task id
system.cpu.dcache.tags.occ_task_id_percent::1024            1                       # Percentage of cache occupancy per task id
system.cpu.dcache.tags.tag_accesses         212536070                       # Number of tag accesses
system.cpu.dcache.tags.data_accesses        212536070                       # Number of data accesses
system.cpu.dcache.pwrStateResidencyTicks::UNDEFINED  45749108500                       # Cumulative time (in ticks) in various power states
system.cpu.dcache.ReadReq_hits::.cpu.data     17907272                       # number of ReadReq hits
system.cpu.dcache.ReadReq_hits::total        17907272                       # number of ReadReq hits
system.cpu.dcache.WriteReq_hits::.cpu.data      8641940                       # number of WriteReq hits
system.cpu.dcache.WriteReq_hits::total        8641940                       # number of WriteReq hits
system.cpu.dcache.demand_hits::.cpu.data     26549212                       # number of demand (read+write) hits
system.cpu.dcache.demand_hits::total         26549212                       # number of demand (read+write) hits
system.cpu.dcache.overall_hits::.cpu.data     26549212                       # number of overall hits
system.cpu.dcache.overall_hits::total        26549212                       # number of overall hits
system.cpu.dcache.ReadReq_misses::.cpu.data         6313                       # number of ReadReq misses
system.cpu.dcache.ReadReq_misses::total          6313                       # number of ReadReq misses
system.cpu.dcache.WriteReq_misses::.cpu.data         9584                       # number of WriteReq misses
system.cpu.dcache.WriteReq_misses::total         9584                       # number of WriteReq misses
system.cpu.dcache.demand_misses::.cpu.data        15897                       # number of demand (read+write) misses
system.cpu.dcache.demand_misses::total          15897                       # number of demand (read+write) misses
system.cpu.dcache.overall_misses::.cpu.data        15897                       # number of overall misses
system.cpu.dcache.overall_misses::total         15897                       # number of overall misses
system.cpu.dcache.ReadReq_miss_latency::.cpu.data    234009000                       # number of ReadReq miss cycles
system.cpu.dcache.ReadReq_miss_latency::total    234009000                       # number of ReadReq miss cycles
system.cpu.dcache.WriteReq_miss_latency::.cpu.data    810019500                       # number of WriteReq miss cycles
system.cpu.dcache.WriteReq_miss_latency::total    810019500                       # number of WriteReq miss cycles
system.cpu.dcache.demand_miss_latency::.cpu.data   1044028500                       # number of demand (read+write) miss cycles
system.cpu.dcache.demand_miss_latency::total   1044028500                       # number of demand (read+write) miss cycles
system.cpu.dcache.overall_miss_latency::.cpu.data   1044028500                       # number of overall miss cycles
system.cpu.dcache.overall_miss_latency::total   1044028500                       # number of overall miss cycles
system.cpu.dcache.ReadReq_accesses::.cpu.data     17913585                       # number of ReadReq accesses(hits+misses)
system.cpu.dcache.ReadReq_accesses::total     17913585                       # number of ReadReq accesses(hits+misses)
system.cpu.dcache.WriteReq_accesses::.cpu.data      8651524                       # number of WriteReq accesses(hits+misses)
system.cpu.dcache.WriteReq_accesses::total      8651524                       # number of WriteReq accesses(hits+misses)
system.cpu.dcache.demand_accesses::.cpu.data     26565109                       # number of demand (read+write) accesses
system.cpu.dcache.demand_accesses::total     26565109                       # number of demand (read+write) accesses
system.cpu.dcache.overall_accesses::.cpu.data     26565109                       # number of overall (read+write) accesses
system.cpu.dcache.overall_accesses::total     26565109                       # number of overall (read+write) accesses
system.cpu.dcache.ReadReq_miss_rate::.cpu.data     0.000352                       # miss rate for ReadReq accesses
system.cpu.dcache.ReadReq_miss_rate::total     0.000352                       # miss rate for ReadReq accesses
system.cpu.dcache.WriteReq_miss_rate::.cpu.data     0.001108                       # miss rate for WriteReq accesses
system.cpu.dcache.WriteReq_miss_rate::total     0.001108                       # miss rate for WriteReq accesses
system.cpu.dcache.demand_miss_rate::.cpu.data     0.000598                       # miss rate for demand accesses
system.cpu.dcache.demand_miss_rate::total     0.000598                       # miss rate for demand accesses
system.cpu.dcache.overall_miss_rate::.cpu.data     0.000598                       # miss rate for overall accesses
system.cpu.dcache.overall_miss_rate::total     0.000598                       # miss rate for overall accesses
system.cpu.dcache.ReadReq_avg_miss_latency::.cpu.data 37067.796610                       # average ReadReq miss latency
system.cpu.dcache.ReadReq_avg_miss_latency::total 37067.796610                       # average ReadReq miss latency
system.cpu.dcache.WriteReq_avg_miss_latency::.cpu.data 84517.894407                       # average WriteReq miss latency
[...]
system.l3cache.tags.occ_percent::.cpu.data     0.136120                       # Average percentage of cache occupancy
system.l3cache.tags.occ_percent::total       0.157025                       # Average percentage of cache occupancy
system.l3cache.tags.occ_task_id_blocks::1024         9551                       # Occupied blocks per task id
system.l3cache.tags.age_task_id_blocks_1024::0           67                       # Occupied blocks per task id
system.l3cache.tags.age_task_id_blocks_1024::1           12                       # Occupied blocks per task id
system.l3cache.tags.age_task_id_blocks_1024::2          194                       # Occupied blocks per task id
system.l3cache.tags.age_task_id_blocks_1024::3         1945                       # Occupied blocks per task id
system.l3cache.tags.age_task_id_blocks_1024::4         7333                       # Occupied blocks per task id
system.l3cache.tags.occ_task_id_percent::1024     0.291473                       # Percentage of cache occupancy per task id
system.l3cache.tags.tag_accesses               393615                       # Number of tag accesses
system.l3cache.tags.data_accesses              393615                       # Number of data accesses
system.l3cache.pwrStateResidencyTicks::UNDEFINED  45749108500                       # Cumulative time (in ticks) in various power states
system.l3cache.WritebackDirty_hits::.writebacks         9473                       # number of WritebackDirty hits
system.l3cache.WritebackDirty_hits::total         9473                       # number of WritebackDirty hits
system.l3cache.ReadExReq_hits::.cpu.data          314                       # number of ReadExReq hits
system.l3cache.ReadExReq_hits::total              314                       # number of ReadExReq hits
system.l3cache.ReadSharedReq_hits::.cpu.inst           14                       # number of ReadSharedReq hits
system.l3cache.ReadSharedReq_hits::.cpu.data         4652                       # number of ReadSharedReq hits
system.l3cache.ReadSharedReq_hits::total         4666                       # number of ReadSharedReq hits
system.l3cache.demand_hits::.cpu.inst              14                       # number of demand (read+write) hits
system.l3cache.demand_hits::.cpu.data            4966                       # number of demand (read+write) hits
system.l3cache.demand_hits::total                4980                       # number of demand (read+write) hits
system.l3cache.overall_hits::.cpu.inst             14                       # number of overall hits
system.l3cache.overall_hits::.cpu.data           4966                       # number of overall hits
system.l3cache.overall_hits::total               4980                       # number of overall hits
system.l3cache.ReadExReq_misses::.cpu.data         8491                       # number of ReadExReq misses
system.l3cache.ReadExReq_misses::total           8491                       # number of ReadExReq misses
system.l3cache.ReadSharedReq_misses::.cpu.inst          782                       # number of ReadSharedReq misses
system.l3cache.ReadSharedReq_misses::.cpu.data          278                       # number of ReadSharedReq misses
system.l3cache.ReadSharedReq_misses::total         1060                       # number of ReadSharedReq misses
system.l3cache.demand_misses::.cpu.inst           782                       # number of demand (read+write) misses
system.l3cache.demand_misses::.cpu.data          8769                       # number of demand (read+write) misses
system.l3cache.demand_misses::total              9551                       # number of demand (read+write) misses
system.l3cache.overall_misses::.cpu.inst          782                       # number of overall misses
system.l3cache.overall_misses::.cpu.data         8769                       # number of overall misses
system.l3cache.overall_misses::total             9551                       # number of overall misses
system.l3cache.ReadExReq_miss_latency::.cpu.data    678344500                       # number of ReadExReq miss cycles
system.l3cache.ReadExReq_miss_latency::total    678344500                       # number of ReadExReq miss cycles
system.l3cache.ReadSharedReq_miss_latency::.cpu.inst     58409500                       # number of ReadSharedReq miss cycles
system.l3cache.ReadSharedReq_miss_latency::.cpu.data     41606000                       # number of ReadSharedReq miss cycles
system.l3cache.ReadSharedReq_miss_latency::total    100015500                       # number of ReadSharedReq miss cycles
system.l3cache.demand_miss_latency::.cpu.inst     58409500                       # number of demand (read+write) miss cycles
system.l3cache.demand_miss_latency::.cpu.data    719950500                       # number of demand (read+write) miss cycles
system.l3cache.demand_miss_latency::total    778360000                       # number of demand (read+write) miss cycles
system.l3cache.overall_miss_latency::.cpu.inst     58409500                       # number of overall miss cycles
system.l3cache.overall_miss_latency::.cpu.data    719950500                       # number of overall miss cycles
system.l3cache.overall_miss_latency::total    778360000                       # number of overall miss cycles
system.l3cache.WritebackDirty_accesses::.writebacks         9473                       # number of WritebackDirty accesses(hits+misses)
system.l3cache.WritebackDirty_accesses::total         9473                       # number of WritebackDirty accesses(hits+misses)
system.l3cache.ReadExReq_accesses::.cpu.data         8805                       # number of ReadExReq accesses(hits+misses)
system.l3cache.ReadExReq_accesses::total         8805                       # number of ReadExReq accesses(hits+misses)
system.l3cache.ReadSharedReq_accesses::.cpu.inst          796                       # number of ReadSharedReq accesses(hits+misses)
system.l3cache.ReadSharedReq_accesses::.cpu.data         4930                       # number of ReadSharedReq accesses(hits+misses)
system.l3cache.ReadSharedReq_accesses::total         5726                       # number of ReadSharedReq accesses(hits+misses)
system.l3cache.demand_accesses::.cpu.inst          796                       # number of demand (read+write) accesses
system.l3cache.demand_accesses::.cpu.data        13735                       # number of demand (read+write) accesses
system.l3cache.demand_accesses::total           14531                       # number of demand (read+write) accesses
system.l3cache.overall_accesses::.cpu.inst          796                       # number of overall (read+write) accesses
system.l3cache.overall_accesses::.cpu.data        13735                       # number of overall (read+write) accesses
system.l3cache.overall_accesses::total          14531                       # number of overall (read+write) accesses
system.l3cache.ReadExReq_miss_rate::.cpu.data     0.964338                       # miss rate for ReadExReq accesses
system.l3cache.ReadExReq_miss_rate::total     0.964338                       # miss rate for ReadExReq accesses
system.l3cache.ReadSharedReq_miss_rate::.cpu.inst     0.982412                       # miss rate for ReadSharedReq accesses
system.l3cache.ReadSharedReq_miss_rate::.cpu.data     0.056389                       # miss rate for ReadSharedReq accesses
system.l3cache.ReadSharedReq_miss_rate::total     0.185121                       # miss rate for ReadSharedReq accesses
system.l3cache.demand_miss_rate::.cpu.inst     0.982412                       # miss rate for demand accesses
system.l3cache.demand_miss_rate::.cpu.data     0.638442                       # miss rate for demand accesses
system.l3cache.demand_miss_rate::total       0.657284                       # miss rate for demand accesses
system.l3cache.overall_miss_rate::.cpu.inst     0.982412                       # miss rate for overall accesses
system.l3cache.overall_miss_rate::.cpu.data     0.638442                       # miss rate for overall accesses
system.l3cache.overall_miss_rate::total      0.657284                       # miss rate for overall accesses
system.l3cache.ReadExReq_avg_miss_latency::.cpu.data 79889.824520                       # average ReadExReq miss latency
system.l3cache.ReadExReq_avg_miss_latency::total 79889.824520                       # average ReadExReq miss latency
system.l3cache.ReadSharedReq_avg_miss_latency::.cpu.inst 74692.455243                       # average ReadSharedReq miss latency
system.l3cache.ReadSharedReq_avg_miss_latency::.cpu.data 149661.870504                       # average ReadSharedReq miss latency
system.l3cache.ReadSharedReq_avg_miss_latency::total 94354.245283                       # average ReadSharedReq miss latency
system.l3cache.demand_avg_miss_latency::.cpu.inst 74692.455243                       # average overall miss latency
system.l3cache.demand_avg_miss_latency::.cpu.data 82101.778994                       # average overall miss latency
system.l3cache.demand_avg_miss_latency::total 81495.131400                       # average overall miss latency
system.l3cache.overall_avg_miss_latency::.cpu.inst 74692.455243                       # average overall miss latency
system.l3cache.overall_avg_miss_latency::.cpu.data 82101.778994                       # average overall miss latency
system.l3cache.overall_avg_miss_latency::total 81495.131400                       # average overall miss latency
system.l3cache.blocked_cycles::no_mshrs             0                       # number of cycles access was blocked
system.l3cache.blocked_cycles::no_targets            0                       # number of cycles access was blocked
system.l3cache.blocked::no_mshrs                    0                       # number of cycles access was blocked
system.l3cache.blocked::no_targets                  0                       # number of cycles access was blocked
system.l3cache.avg_blocked_cycles::no_mshrs          nan                       # average number of cycles each access was blocked
system.l3cache.avg_blocked_cycles::no_targets          nan                       # average number of cycles each access was blocked
system.l3cache.ReadExReq_mshr_misses::.cpu.data         8491                       # number of ReadExReq MSHR misses
system.l3cache.ReadExReq_mshr_misses::total         8491                       # number of ReadExReq MSHR misses
system.l3cache.ReadSharedReq_mshr_misses::.cpu.inst          782                       # number of ReadSharedReq MSHR misses
system.l3cache.ReadSharedReq_mshr_misses::.cpu.data          278                       # number of ReadSharedReq MSHR misses
system.l3cache.ReadSharedReq_mshr_misses::total         1060                       # number of ReadSharedReq MSHR misses
system.l3cache.demand_mshr_misses::.cpu.inst          782                       # number of demand (read+write) MSHR misses
system.l3cache.demand_mshr_misses::.cpu.data         8769                       # number of demand (read+write) MSHR misses
system.l3cache.demand_mshr_misses::total         9551                       # number of demand (read+write) MSHR misses
system.l3cache.overall_mshr_misses::.cpu.inst          782                       # number of overall MSHR misses
system.l3cache.overall_mshr_misses::.cpu.data         8769                       # number of overall MSHR misses
system.l3cache.overall_mshr_misses::total         9551                       # number of overall MSHR misses
system.l3cache.ReadExReq_mshr_miss_latency::.cpu.data    661362500                       # number of ReadExReq MSHR miss cycles
system.l3cache.ReadExReq_mshr_miss_latency::total    661362500                       # number of ReadExReq MSHR miss cycles
system.l3cache.ReadSharedReq_mshr_miss_latency::.cpu.inst     56845500                       # number of ReadSharedReq MSHR miss cycles
system.l3cache.ReadSharedReq_mshr_miss_latency::.cpu.data     41050000                       # number of ReadSharedReq MSHR miss cycles
system.l3cache.ReadSharedReq_mshr_miss_latency::total     97895500                       # number of ReadSharedReq MSHR miss cycles
system.l3cache.demand_mshr_miss_latency::.cpu.inst     56845500                       # number of demand (read+write) MSHR miss cycles
system.l3cache.demand_mshr_miss_latency::.cpu.data    702412500                       # number of demand (read+write) MSHR miss cycles
system.l3cache.demand_mshr_miss_latency::total    759258000                       # number of demand (read+write) MSHR miss cycles
system.l3cache.overall_mshr_miss_latency::.cpu.inst     56845500                       # number of overall MSHR miss cycles
system.l3cache.overall_mshr_miss_latency::.cpu.data    702412500                       # number of overall MSHR miss cycles
system.l3cache.overall_mshr_miss_latency::total    759258000                       # number of overall MSHR miss cycles
system.l3cache.ReadExReq_mshr_miss_rate::.cpu.data     0.964338                       # mshr miss rate for ReadExReq accesses
system.l3cache.ReadExReq_mshr_miss_rate::total     0.964338                       # mshr miss rate for ReadExReq accesses
system.l3cache.ReadSharedReq_mshr_miss_rate::.cpu.inst     0.982412                       # mshr miss rate for ReadSharedReq accesses
system.l3cache.ReadSharedReq_mshr_miss_rate::.cpu.data     0.056389                       # mshr miss rate for ReadSharedReq accesses
system.l3cache.ReadSharedReq_mshr_miss_rate::total     0.185121                       # mshr miss rate for ReadSharedReq accesses
system.l3cache.demand_mshr_miss_rate::.cpu.inst     0.982412                       # mshr miss rate for demand accesses
system.l3cache.demand_mshr_miss_rate::.cpu.data     0.638442                       # mshr miss rate for demand accesses
system.l3cache.demand_mshr_miss_rate::total     0.657284                       # mshr miss rate for demand accesses
system.l3cache.overall_mshr_miss_rate::.cpu.inst     0.982412                       # mshr miss rate for overall accesses
system.l3cache.overall_mshr_miss_rate::.cpu.data     0.638442                       # mshr miss rate for overall accesses
system.l3cache.overall_mshr_miss_rate::total     0.657284                       # mshr miss rate for overall accesses
system.l3cache.ReadExReq_avg_mshr_miss_latency::.cpu.data 77889.824520                       # average ReadExReq mshr miss latency
system.l3cache.ReadExReq_avg_mshr_miss_latency::total 77889.824520                       # average ReadExReq mshr miss latency
system.l3cache.ReadSharedReq_avg_mshr_miss_latency::.cpu.inst 72692.455243                       # average ReadSharedReq mshr miss latency
system.l3cache.ReadSharedReq_avg_mshr_miss_latency::.cpu.data 147661.870504                       # average ReadSharedReq mshr miss latency
system.l3cache.ReadSharedReq_avg_mshr_miss_latency::total 92354.245283                       # average ReadSharedReq mshr miss latency
system.l3cache.demand_avg_mshr_miss_latency::.cpu.inst 72692.455243                       # average overall mshr miss latency
system.l3cache.demand_avg_mshr_miss_latency::.cpu.data 80101.778994                       # average overall mshr miss latency
system.l3cache.demand_avg_mshr_miss_latency::total 79495.131400                       # average overall mshr miss latency
system.l3cache.overall_avg_mshr_miss_latency::.cpu.inst 72692.455243                       # average overall mshr miss latency
system.l3cache.overall_avg_mshr_miss_latency::.cpu.data 80101.778994                       # average overall mshr miss latency
system.l3cache.overall_avg_mshr_miss_latency::total 79495.131400                       # average overall mshr miss latency
system.l3cache.replacements                         0                       # number of replacements
system.membus.snoop_filter.tot_requests          9551                       # Total number of requests made to the snoop filter.
system.membus.snoop_filter.hit_single_requests            0                       # Number of requests hitting in the snoop filter with a single holder of the requested data.
system.membus.snoop_filter.hit_multi_requests            0                       # Number of requests hitting in the snoop filter with multiple (>1) holders of the requested data.
system.membus.snoop_filter.tot_snoops               0                       # Total number of snoops made to the snoop filter.
system.membus.snoop_filter.hit_single_snoops            0                       # Number of snoops hitting in the snoop filter with a single holder of the requested data.
system.membus.snoop_filter.hit_multi_snoops            0                       # Number of snoops hitting in the snoop filter with multiple (>1) holders of the requested data.
system.membus.pwrStateResidencyTicks::UNDEFINED  45749108500                       # Cumulative time (in ticks) in various power states
system.membus.trans_dist::ReadResp               1060                       # Transaction distribution
system.membus.trans_dist::ReadExReq              8491                       # Transaction distribution
system.membus.trans_dist::ReadExResp             8491                       # Transaction distribution
system.membus.trans_dist::ReadSharedReq          1060                       # Transaction distribution
system.membus.pkt_count_system.l3cache.mem_side::system.mem_ctrl.port        19102                       # Packet count per connected master and slave (bytes)
system.membus.pkt_count_system.l3cache.mem_side::total        19102                       # Packet count per connected master and slave (bytes)
system.membus.pkt_count::total                  19102                       # Packet count per connected master and slave (bytes)
system.membus.pkt_size_system.l3cache.mem_side::system.mem_ctrl.port       611264                       # Cumulative packet size per connected master and slave (bytes)
system.membus.pkt_size_system.l3cache.mem_side::total       611264                       # Cumulative packet size per connected master and slave (bytes)
system.membus.pkt_size::total                  611264                       # Cumulative packet size per connected master and slave (bytes)
system.membus.snoops                                0                       # Total snoops (count)
system.membus.snoopTraffic                          0                       # Total snoop traffic (bytes)
system.membus.snoop_fanout::samples              9551                       # Request fanout histogram
system.membus.snoop_fanout::mean                    0                       # Request fanout histogram
system.membus.snoop_fanout::stdev                   0                       # Request fanout histogram
system.membus.snoop_fanout::underflows              0      0.00%      0.00% # Request fanout histogram
system.membus.snoop_fanout::0                    9551    100.00%    100.00% # Request fanout histogram
system.membus.snoop_fanout::1                       0      0.00%    100.00% # Request fanout histogram
system.membus.snoop_fanout::overflows               0      0.00%    100.00% # Request fanout histogram
system.membus.snoop_fanout::min_value               0                       # Request fanout histogram
system.membus.snoop_fanout::max_value               0                       # Request fanout histogram
system.membus.snoop_fanout::total                9551                       # Request fanout histogram
system.membus.reqLayer0.occupancy             4775500                       # Layer occupancy (ticks)
system.membus.reqLayer0.utilization               0.0                       # Layer utilization (%)
system.membus.respLayer0.occupancy           24787000                       # Layer occupancy (ticks)
system.membus.respLayer0.utilization              0.1                       # Layer utilization (%)

---------- End Simulation Statistics   ----------