
---------- Begin Simulation Statistics ----------
sim_seconds                                  0.041369                       # Number of seconds simulated
sim_ticks                                 41369000000                       # Number of ticks simulated
final_tick                                41369000000                       # Number of ticks from beginning of simulation (restored from checkpoints and never reset)
sim_freq                                 1000000000000                       # Frequency of simulated ticks
host_inst_rate                                 297796                       # Simulator instruction rate (inst/s)
host_op_rate                                   524093                       # Simulator op (including micro ops) rate (op/s)
host_tick_rate                              197030784                       # Simulator tick rate (ticks/s)
host_mem_usage                                 660116                       # Number of bytes of host memory used
host_seconds                                   209.96                       # Real time elapsed on the host
sim_insts                                    62525833                       # Number of instructions simulated
sim_ops                                     110039685                       # Number of ops (including micro ops) simulated
system.clk_domain.voltage_domain.voltage            1                       # Voltage in Volts
system.clk_domain.clock                           500                       # Clock period in ticks
system.mem_ctrl.pwrStateResidencyTicks::UNDEFINED  41369000000                       # Cumulative time (in ticks) in various power states
system.mem_ctrl.bytes_read::.cpu.inst           48320                       # Number of bytes read from this memory
system.mem_ctrl.bytes_read::.cpu.data          561216                       # Number of bytes read from this memory
system.mem_ctrl.bytes_read::total              609536                       # Number of bytes read from this memory
system.mem_ctrl.bytes_inst_read::.cpu.inst        48320                       # Number of instructions bytes read from this memory
system.mem_ctrl.bytes_inst_read::total          48320                       # Number of instructions bytes read from this memory
system.mem_ctrl.num_reads::.cpu.inst              755                       # Number of read requests responded to by this memory
system.mem_ctrl.num_reads::.cpu.data             8769                       # Number of read requests responded to by this memory
system.mem_ctrl.num_reads::total                 9524                       # Number of read requests responded to by this memory
system.mem_ctrl.bw_read::.cpu.inst            1168024                       # Total read bandwidth from this memory (bytes/s)
system.mem_ctrl.bw_read::.cpu.data           13566100                       # Total read bandwidth from this memory (bytes/s)
system.mem_ctrl.bw_read::total               14734125                       # Total read bandwidth from this memory (bytes/s)
system.mem_ctrl.bw_inst_read::.cpu.inst       1168024                       # Instruction read bandwidth from this memory (bytes/s)
system.mem_ctrl.bw_inst_read::total           1168024                       # Instruction read bandwidth from this memory (bytes/s)
system.mem_ctrl.bw_total::.cpu.inst           1168024                       # Total bandwidth to/from this memory (bytes/s)
system.mem_ctrl.bw_total::.cpu.data          13566100                       # Total bandwidth to/from this memory (bytes/s)
system.mem_ctrl.bw_total::total              14734125                       # Total bandwidth to/from this memory (bytes/s)
system.mem_ctrl.avgPriority_.cpu.inst::samples       755.00                       # Average QoS priority value for accepted requests
system.mem_ctrl.avgPriority_.cpu.data::samples      8769.00                       # Average QoS priority value for accepted requests
system.mem_ctrl.priorityMinLatency       0.000000018750                       # per QoS priority minimum request to response latency (s)
system.mem_ctrl.priorityMaxLatency       0.000001101750                       # per QoS priority maximum request to response latency (s)
system.mem_ctrl.numReadWriteTurnArounds             0                       # Number of turnarounds from READ to WRITE
system.mem_ctrl.numWriteReadTurnArounds             0                       # Number of turnarounds from WRITE to READ
system.mem_ctrl.numStayReadState                24471                       # Number of times bus staying in READ state
system.mem_ctrl.numStayWriteState                   0                       # Number of times bus staying in WRITE state
system.mem_ctrl.readReqs                         9524                       # Number of read requests accepted
system.mem_ctrl.writeReqs                           0                       # Number of write requests accepted
system.mem_ctrl.readBursts                       9524                       # Number of DRAM read bursts, including those serviced by the write queue
system.mem_ctrl.writeBursts                         0                       # Number of DRAM write bursts, including those merged in the write queue
system.mem_ctrl.bytesReadDRAM                  609536                       # Total number of bytes read from DRAM
system.mem_ctrl.bytesReadWrQ                        0                       # Total number of bytes read from write queue
system.mem_ctrl.bytesWritten                        0                       # Total number of bytes written to DRAM
system.mem_ctrl.bytesReadSys                   609536                       # Total read bytes from the system interface side
system.mem_ctrl.bytesWrittenSys                     0                       # Total written bytes from the system interface side
system.mem_ctrl.servicedByWrQ                       0                       # Number of DRAM read bursts serviced by the write queue
system.mem_ctrl.mergedWrBursts                      0                       # Number of DRAM write bursts merged with an existing one
system.mem_ctrl.neitherReadNorWriteReqs             0                       # Number of requests that are neither read nor write
system.mem_ctrl.perBankRdBursts::0                778                       # Per bank write bursts
system.mem_ctrl.perBankRdBursts::1                622                       # Per bank write bursts
system.mem_ctrl.perBankRdBursts::2                550                       # Per bank write bursts
system.mem_ctrl.perBankRdBursts::3                527                       # Per bank write bursts
system.mem_ctrl.perBankRdBursts::4                541                       # Per bank write bursts
system.mem_ctrl.perBankRdBursts::5                524                       # Per bank write bursts
system.mem_ctrl.perBankRdBursts::6                585                       # Per bank write bursts
system.mem_ctrl.perBankRdBursts::7                613                       # Per bank write bursts
system.mem_ctrl.perBankRdBursts::8                540                       # Per bank write bursts
system.mem_ctrl.perBankRdBursts::9                563                       # Per bank write bursts
system.mem_ctrl.perBankRdBursts::10               654                       # Per bank write bursts
system.mem_ctrl.perBankRdBursts::11               614                       # Per bank write bursts
system.mem_ctrl.perBankRdBursts::12               568                       # Per bank write bursts
system.mem_ctrl.perBankRdBursts::13               580                       # Per bank write bursts
system.mem_ctrl.perBankRdBursts::14               616                       # Per bank write bursts
system.mem_ctrl.perBankRdBursts::15               649                       # Per bank write bursts
system.mem_ctrl.perBankWrBursts::0                  0                       # Per bank write bursts
system.mem_ctrl.perBankWrBursts::1                  0                       # Per bank write bursts
system.mem_ctrl.perBankWrBursts::2                  0                       # Per bank write bursts
system.mem_ctrl.perBankWrBursts::3                  0                       # Per bank write bursts
system.mem_ctrl.perBankWrBursts::4                  0                       # Per bank write bursts
system.mem_ctrl.perBankWrBursts::5                  0                       # Per bank write bursts
system.mem_ctrl.perBankWrBursts::6                  0                       # Per bank write bursts
system.mem_ctrl.perBankWrBursts::7                  0                       # Per bank write bursts
system.mem_ctrl.perBankWrBursts::8                  0                       # Per bank write bursts
system.mem_ctrl.perBankWrBursts::9                  0                       # Per bank write bursts
system.mem_ctrl.perBankWrBursts::10                 0                       # Per bank write bursts
system.mem_ctrl.perBankWrBursts::11                 0                       # Per bank write bursts
system.mem_ctrl.perBankWrBursts::12                 0                       # Per bank write bursts
system.mem_ctrl.perBankWrBursts::13                 0                       # Per bank write bursts
system.mem_ctrl.perBankWrBursts::14                 0                       # Per bank write bursts
system.mem_ctrl.perBankWrBursts::15                 0                       # Per bank write bursts
system.mem_ctrl.numRdRetry                          0                       # Number of times read queue was full causing retry
system.mem_ctrl.numWrRetry                          0                       # Number of times write queue was full causing retry
system.mem_ctrl.totGap                    41368916000                       # Total gap between requests
system.mem_ctrl.readPktSize::0                      0                       # Read request sizes (log2)
system.mem_ctrl.readPktSize::1                      0                       # Read request sizes (log2)
system.mem_ctrl.readPktSize::2                      0                       # Read request sizes (log2)
system.mem_ctrl.readPktSize::3                      0                       # Read request sizes (log2)
system.mem_ctrl.readPktSize::4                      0                       # Read request sizes (log2)
system.mem_ctrl.readPktSize::5                      0                       # Read request sizes (log2)
system.mem_ctrl.readPktSize::6                   9524                       # Read request sizes (log2)
system.mem_ctrl.writePktSize::0                     0                       # Write request sizes (log2)
system.mem_ctrl.writePktSize::1                     0                       # Write request sizes (log2)
system.mem_ctrl.writePktSize::2                     0                       # Write request sizes (log2)
system.mem_ctrl.writePktSize::3                     0                       # Write request sizes (log2)
system.mem_ctrl.writePktSize::4                     0                       # Write request sizes (log2)
system.mem_ctrl.writePktSize::5                     0                       # Write request sizes (log2)
system.mem_ctrl.writePktSize::6                     0                       # Write request sizes (log2)
system.mem_ctrl.rdQLenPdf::0                     9167                       # What read queue length does an incoming req see
system.mem_ctrl.rdQLenPdf::1                      272                       # What read queue length does an incoming req see
system.mem_ctrl.rdQLenPdf::2                       64                       # What read queue length does an incoming req see
system.mem_ctrl.rdQLenPdf::3                       15                       # What read queue length does an incoming req see
system.mem_ctrl.rdQLenPdf::4                        6                       # What read queue length does an incoming req see
system.mem_ctrl.rdQLenPdf::5                        0                       # What read queue length does an incoming req see
system.mem_ctrl.rdQLenPdf::6                        0                       # What read queue length does an incoming req see
system.mem_ctrl.rdQLenPdf::7                        0                       # What read queue length does an incoming req see
system.mem_ctrl.rdQLenPdf::8                        0                       # What read queue length does an incoming req see
system.mem_ctrl.rdQLenPdf::9                        0                       # What read queue length does an incoming req see
system.mem_ctrl.rdQLenPdf::10                       0                       # What read queue length does an incoming req see
system.mem_ctrl.rdQLenPdf::11                       0                       # What read queue length does an incoming req see
system.mem_ctrl.rdQLenPdf::12                       0                       # What read queue length does an incoming req see
system.mem_ctrl.rdQLenPdf::13                       0                       # What read queue length does an incoming req see
system.mem_ctrl.rdQLenPdf::14                       0                       # What read queue length does an incoming req see
system.mem_ctrl.rdQLenPdf::15                       0                       # What read queue length does an incoming req see
system.mem_ctrl.rdQLenPdf::16                       0                       # What read queue length does an incoming req see
system.mem_ctrl.rdQLenPdf::17                       0                       # What read queue length does an incoming req see
system.mem_ctrl.rdQLenPdf::18                       0                       # What read queue length does an incoming req see
system.mem_ctrl.rdQLenPdf::19                       0                       # What read queue length does an incoming req see
system.mem_ctrl.rdQLenPdf::20                       0                       # What read queue length does an incoming req see
system.mem_ctrl.rdQLenPdf::21                       0                       # What read queue length does an incoming req see
system.mem_ctrl.rdQLenPdf::22                       0                       # What read queue length does an incoming req see
system.mem_ctrl.rdQLenPdf::23                       0                       # What read queue length does an incoming req see
system.mem_ctrl.rdQLenPdf::24                       0                       # What read queue length does an incoming req see
system.mem_ctrl.rdQLenPdf::25                       0                       # What read queue length does an incoming req see
system.mem_ctrl.rdQLenPdf::26                       0                       # What read queue length does an incoming req see
system.mem_ctrl.rdQLenPdf::27                       0                       # What read queue length does an incoming req see
system.mem_ctrl.rdQLenPdf::28                       0                       # What read queue length does an incoming req see
system.mem_ctrl.rdQLenPdf::29                       0                       # What read queue length does an incoming req see
system.mem_ctrl.rdQLenPdf::30                       0                       # What read queue length does an incoming req see
system.mem_ctrl.rdQLenPdf::31                       0                       # What read queue length does an incoming req see
system.mem_ctrl.wrQLenPdf::0                        0                       # What write queue length does an incoming req see
system.mem_ctrl.wrQLenPdf::1                        0                       # What write queue length does an incoming req see
system.mem_ctrl.wrQLenPdf::2                        0                       # What write queue length does an incoming req see
system.mem_ctrl.wrQLenPdf::3                        0                       # What write queue length does an incoming req see
system.mem_ctrl.wrQLenPdf::4                        0                       # What write queue length does an incoming req see
system.mem_ctrl.wrQLenPdf::5                        0                       # What write queue length does an incoming req see
system.mem_ctrl.wrQLenPdf::6                        0                       # What write queue length does an incoming req see
system.mem_ctrl.wrQLenPdf::7                        0                       # What write queue length does an incoming req see
system.mem_ctrl.wrQLenPdf::8                        0                       # What write queue length does an incoming req see
system.mem_ctrl.wrQLenPdf::9                        0                       # What write queue length does an incoming req see
system.mem_ctrl.wrQLenPdf::10                       0                       # What write queue length does an incoming req see
system.mem_ctrl.wrQLenPdf::11                       0                       # What write queue length does an incoming req see
system.mem_ctrl.wrQLenPdf::12                       0                       # What write queue length does an incoming req see
system.mem_ctrl.wrQLenPdf::13                       0                       # What write queue length does an incoming req see
system.mem_ctrl.wrQLenPdf::14                       0                       # What write queue length does an incoming req see
system.mem_ctrl.wrQLenPdf::15                       0                       # What write queue length does an incoming req see
system.mem_ctrl.wrQLenPdf::16                       0                       # What write queue length does an incoming req see
system.mem_ctrl.wrQLenPdf::17                       0                       # What write queue length does an incoming req see
system.mem_ctrl.wrQLenPdf::18                       0                       # What write queue length does an incoming req see
system.mem_ctrl.wrQLenPdf::19                       0                       # What write queue length does an incoming req see
system.mem_ctrl.wrQLenPdf::20                       0                       # What write queue length does an incoming req see
system.mem_ctrl.wrQLenPdf::21                       0                       # What write queue length does an incoming req see
system.mem_ctrl.wrQLenPdf::22                       0                       # What write queue length does an incoming req see
system.mem_ctrl.wrQLenPdf::23                       0                       # What write queue length does an incoming req see
system.mem_ctrl.wrQLenPdf::24                       0                       # What write queue length does an incoming req see
system.mem_ctrl.wrQLenPdf::25                       0                       # What write queue length does an incoming req see
system.mem_ctrl.wrQLenPdf::26                       0                       # What write queue length does an incoming req see
system.mem_ctrl.wrQLenPdf::27                       0                       # What write queue length does an incoming req see
system.mem_ctrl.wrQLenPdf::28                       0                       # What write queue length does an incoming req see
system.mem_ctrl.wrQLenPdf::29                       0                       # What write queue length does an incoming req see
system.mem_ctrl.wrQLenPdf::30                       0                       # What write queue length does an incoming req see
system.mem_ctrl.wrQLenPdf::31                       0                       # What write queue length does an incoming req see
system.mem_ctrl.wrQLenPdf::32                       0                       # What write queue length does an incoming req see
system.mem_ctrl.wrQLenPdf::33                       0                       # What write queue length does an incoming req see
system.mem_ctrl.wrQLenPdf::34                       0                       # What write queue length does an incoming req see
system.mem_ctrl.wrQLenPdf::35                       0                       # What write queue length does an incoming req see
system.mem_ctrl.wrQLenPdf::36                       0                       # What write queue length does an incoming req see
system.mem_ctrl.wrQLenPdf::37                       0                       # What write queue length does an incoming req see
system.mem_ctrl.wrQLenPdf::38                       0                       # What write queue length does an incoming req see
system.mem_ctrl.wrQLenPdf::39                       0                       # What write queue length does an incoming req see
system.mem_ctrl.wrQLenPdf::40                       0                       # What write queue length does an incoming req see
system.mem_ctrl.wrQLenPdf::41                       0                       # What write queue length does an incoming req see
system.mem_ctrl.wrQLenPdf::42                       0                       # What write queue length does an incoming req see
system.mem_ctrl.wrQLenPdf::43                       0                       # What write queue length does an incoming req see
system.mem_ctrl.wrQLenPdf::44                       0                       # What write queue length does an incoming req see
system.mem_ctrl.wrQLenPdf::45                       0                       # What write queue length does an incoming req see
system.mem_ctrl.wrQLenPdf::46                       0                       # What write queue length does an incoming req see
system.mem_ctrl.wrQLenPdf::47                       0                       # What write queue length does an incoming req see
system.mem_ctrl.wrQLenPdf::48                       0                       # What write queue length does an incoming req see
system.mem_ctrl.wrQLenPdf::49                       0                       # What write queue length does an incoming req see
system.mem_ctrl.wrQLenPdf::50                       0                       # What write queue length does an incoming req see
system.mem_ctrl.wrQLenPdf::51                       0                       # What write queue length does an incoming req see
system.mem_ctrl.wrQLenPdf::52                       0                       # What write queue length does an incoming req see
system.mem_ctrl.wrQLenPdf::53                       0                       # What write queue length does an incoming req see
system.mem_ctrl.wrQLenPdf::54                       0                       # What write queue length does an incoming req see
system.mem_ctrl.wrQLenPdf::55                       0                       # What write queue length does an incoming req see
system.mem_ctrl.wrQLenPdf::56                       0                       # What write queue length does an incoming req see
system.mem_ctrl.wrQLenPdf::57                       0                       # What write queue length does an incoming req see
system.mem_ctrl.wrQLenPdf::58                       0                       # What write queue length does an incoming req see
system.mem_ctrl.wrQLenPdf::59                       0                       # What write queue length does an incoming req see
system.mem_ctrl.wrQLenPdf::60                       0                       # What write queue length does an incoming req see
system.mem_ctrl.wrQLenPdf::61                       0                       # What write queue length does an incoming req see
system.mem_ctrl.wrQLenPdf::62                       0                       # What write queue length does an incoming req see
system.mem_ctrl.wrQLenPdf::63                       0                       # What write queue length does an incoming req see
system.mem_ctrl.bytesPerActivate::samples         5688                       # Bytes accessed per row activation
system.mem_ctrl.bytesPerActivate::mean     106.801688                       # Bytes accessed per row activation
system.mem_ctrl.bytesPerActivate::gmean     93.377602                       # Bytes accessed per row activation
system.mem_ctrl.bytesPerActivate::stdev     86.755293                       # Bytes accessed per row activation
system.mem_ctrl.bytesPerActivate::0-127          2914     51.23%     51.23% # Bytes accessed per row activation
system.mem_ctrl.bytesPerActivate::128-255         2612     45.92%     97.15% # Bytes accessed per row activation
system.mem_ctrl.bytesPerActivate::256-383           35      0.62%     97.77% # Bytes accessed per row activation
system.mem_ctrl.bytesPerActivate::384-511           35      0.62%     98.38% # Bytes accessed per row activation
system.mem_ctrl.bytesPerActivate::512-639           58      1.02%     99.40% # Bytes accessed per row activation
system.mem_ctrl.bytesPerActivate::640-767            8      0.14%     99.54% # Bytes accessed per row activation
system.mem_ctrl.bytesPerActivate::768-895            4      0.07%     99.61% # Bytes accessed per row activation
system.mem_ctrl.bytesPerActivate::896-1023            6      0.11%     99.72% # Bytes accessed per row activation
system.mem_ctrl.bytesPerActivate::1024-1151           16      0.28%    100.00% # Bytes accessed per row activation
system.mem_ctrl.bytesPerActivate::total          5688                       # Bytes accessed per row activation
system.mem_ctrl.masterReadBytes::.cpu.inst        48320                       # Per-master bytes read from memory
system.mem_ctrl.masterReadBytes::.cpu.data       561216                       # Per-master bytes read from memory
system.mem_ctrl.masterReadRate::.cpu.inst 1168024.366071212571                       # Per-master bytes read from memory rate (Bytes/sec)
system.mem_ctrl.masterReadRate::.cpu.data 13566100.219971476123                       # Per-master bytes read from memory rate (Bytes/sec)
system.mem_ctrl.masterReadAccesses::.cpu.inst          755                       # Per-master read serviced memory accesses
system.mem_ctrl.masterReadAccesses::.cpu.data         8769                       # Per-master read serviced memory accesses
system.mem_ctrl.masterReadTotalLat::.cpu.inst     28405750                       # Per-master read total memory access latency
system.mem_ctrl.masterReadTotalLat::.cpu.data    416478250                       # Per-master read total memory access latency
system.mem_ctrl.masterReadAvgLat::.cpu.inst     37623.51                       # Per-master read average memory access latency
system.mem_ctrl.masterReadAvgLat::.cpu.data     47494.38                       # Per-master read average memory access latency
system.mem_ctrl.totQLat                     266309000                       # Total ticks spent queuing
system.mem_ctrl.totMemAccLat                444884000                       # Total ticks spent from burst creation until serviced by the DRAM
system.mem_ctrl.totBusLat                    47620000                       # Total ticks spent in databus transfers
system.mem_ctrl.avgQLat                      27961.89                       # Average queueing delay per DRAM burst
system.mem_ctrl.avgBusLat                     5000.00                       # Average bus latency per DRAM burst
system.mem_ctrl.avgMemAccLat                 46711.89                       # Average memory access latency per DRAM burst
system.mem_ctrl.avgRdBW                         14.73                       # Average DRAM read bandwidth in MiByte/s
system.mem_ctrl.avgWrBW                          0.00                       # Average achieved write bandwidth in MiByte/s
system.mem_ctrl.avgRdBWSys                      14.73                       # Average system read bandwidth in MiByte/s
system.mem_ctrl.avgWrBWSys                       0.00                       # Average system write bandwidth in MiByte/s
system.mem_ctrl.peakBW                       12800.00                       # Theoretical peak bandwidth in MiByte/s
system.mem_ctrl.busUtil                          0.12                       # Data bus utilization in percentage
system.mem_ctrl.busUtilRead                      0.12                       # Data bus utilization in percentage for reads
system.mem_ctrl.busUtilWrite                     0.00                       # Data bus utilization in percentage for writes
system.mem_ctrl.avgRdQLen                        1.00                       # Average read queue length when enqueuing
system.mem_ctrl.avgWrQLen                        0.00                       # Average write queue length when enqueuing
system.mem_ctrl.readRowHits                      3827                       # Number of row buffer hits during reads
system.mem_ctrl.writeRowHits                        0                       # Number of row buffer hits during writes
system.mem_ctrl.readRowHitRate                  40.18                       # Row buffer hit rate for reads
system.mem_ctrl.writeRowHitRate                   nan                       # Row buffer hit rate for writes
system.mem_ctrl.avgGap                     4343649.31                       # Average gap between requests
system.mem_ctrl.pageHitRate                     40.18                       # Row buffer hit rate, read and write combined
system.mem_ctrl_0.actEnergy                  20370420                       # Energy for activate commands per rank (pJ)
system.mem_ctrl_0.preEnergy                  10808160                       # Energy for precharge commands per rank (pJ)
system.mem_ctrl_0.readEnergy                 33843600                       # Energy for read commands per rank (pJ)
system.mem_ctrl_0.writeEnergy                       0                       # Energy for write commands per rank (pJ)
system.mem_ctrl_0.refreshEnergy          1655840160.000000                       # Energy for refresh commands per rank (pJ)
system.mem_ctrl_0.actBackEnergy             373424100                       # Energy for active background per rank (pJ)
system.mem_ctrl_0.preBackEnergy              38172000                       # Energy for precharge background per rank (pJ)
system.mem_ctrl_0.actPowerDownEnergy       6140055960                       # Energy for active power-down per rank (pJ)
system.mem_ctrl_0.prePowerDownEnergy       2537086560                       # Energy for precharge power-down per rank (pJ)
system.mem_ctrl_0.selfRefreshEnergy        4911861120                       # Energy for self refresh per rank (pJ)
system.mem_ctrl_0.totalEnergy             15721806360                       # Total energy per rank (pJ)
system.mem_ctrl_0.averagePower             380.038347                       # Core power per rank (mW)
system.mem_ctrl_0.totalIdleTime           40449582750                       # Total Idle time Per DRAM Rank
system.mem_ctrl_0.memoryStateTime::IDLE      26418500                       # Time in different power states
system.mem_ctrl_0.memoryStateTime::REF      700440000                       # Time in different power states
system.mem_ctrl_0.memoryStateTime::SREF   20377877000                       # Time in different power states
system.mem_ctrl_0.memoryStateTime::PRE_PDN   6606970500                       # Time in different power states
system.mem_ctrl_0.memoryStateTime::ACT      192518000                       # Time in different power states
system.mem_ctrl_0.memoryStateTime::ACT_PDN  13464776000                       # Time in different power states
system.mem_ctrl_1.actEnergy                  20306160                       # Energy for activate commands per rank (pJ)
system.mem_ctrl_1.preEnergy                  10777800                       # Energy for precharge commands per rank (pJ)
system.mem_ctrl_1.readEnergy                 34157760                       # Energy for read commands per rank (pJ)
system.mem_ctrl_1.writeEnergy                       0                       # Energy for write commands per rank (pJ)
system.mem_ctrl_1.refreshEnergy          1693947840.000000                       # Energy for refresh commands per rank (pJ)
system.mem_ctrl_1.actBackEnergy             380552520                       # Energy for active background per rank (pJ)
system.mem_ctrl_1.preBackEnergy              42712800                       # Energy for precharge background per rank (pJ)
system.mem_ctrl_1.actPowerDownEnergy       6169552320                       # Energy for active power-down per rank (pJ)
system.mem_ctrl_1.prePowerDownEnergy       2691484800                       # Energy for precharge power-down per rank (pJ)
system.mem_ctrl_1.selfRefreshEnergy        4816442100                       # Energy for self refresh per rank (pJ)
system.mem_ctrl_1.totalEnergy             15860711010                       # Total energy per rank (pJ)
system.mem_ctrl_1.averagePower             383.396046                       # Core power per rank (mW)
system.mem_ctrl_1.totalIdleTime           40421552250                       # Total Idle time Per DRAM Rank
system.mem_ctrl_1.memoryStateTime::IDLE      38224500                       # Time in different power states
system.mem_ctrl_1.memoryStateTime::REF      716560000                       # Time in different power states
system.mem_ctrl_1.memoryStateTime::SREF   19882700500                       # Time in different power states
system.mem_ctrl_1.memoryStateTime::PRE_PDN   7009243500                       # Time in different power states
system.mem_ctrl_1.memoryStateTime::ACT      192459000                       # Time in different power states
system.mem_ctrl_1.memoryStateTime::ACT_PDN  13529812500                       # Time in different power states
system.pwrStateResidencyTicks::UNDEFINED  41369000000                       # Cumulative time (in ticks) in various power states
system.cpu.branchPred.lookups                11739088                       # Number of BP lookups
system.cpu.branchPred.condPredicted          11739088                       # Number of conditional branches predicted
system.cpu.branchPred.condIncorrect            264460                       # Number of conditional branches incorrect
system.cpu.branchPred.BTBLookups             10744665                       # Number of BTB lookups
system.cpu.branchPred.BTBHits                       0                       # Number of BTB hits
system.cpu.branchPred.BTBCorrect                    0                       # Number of correct BTB predictions (this stat may not work properly.
system.cpu.branchPred.BTBHitPct              0.000000                       # BTB Hit Percentage
system.cpu.branchPred.usedRAS                  373427                       # Number of times the RAS was used to get a target.
system.cpu.branchPred.RASInCorrect                258                       # Number of incorrect RAS predictions.
system.cpu.branchPred.indirectLookups        10744665                       # Number of indirect predictor lookups.
system.cpu.branchPred.indirectHits            5572406                       # Number of indirect target hits.
system.cpu.branchPred.indirectMisses          5172259                       # Number of indirect misses.
system.cpu.branchPredindirectMispredicted       263518                       # Number of mispredicted indirect branches.
system.cpu.dtb.walker.pwrStateResidencyTicks::UNDEFINED  41369000000                       # Cumulative time (in ticks) in various power states
system.cpu.dtb.rdAccesses                    19646015                       # TLB accesses on read requests
system.cpu.dtb.wrAccesses                     8740951                       # TLB accesses on write requests
system.cpu.dtb.rdMisses                           411                       # TLB misses on read requests
system.cpu.dtb.wrMisses                           299                       # TLB misses on write requests
system.cpu.apic_clk_domain.clock                 8000                       # Clock period in ticks
system.cpu.interrupts.pwrStateResidencyTicks::UNDEFINED  41369000000                       # Cumulative time (in ticks) in various power states
system.cpu.itb.walker.pwrStateResidencyTicks::UNDEFINED  41369000000                       # Cumulative time (in ticks) in various power states
system.cpu.itb.rdAccesses                           0                       # TLB accesses on read requests
system.cpu.itb.wrAccesses                     9051448                       # TLB accesses on write requests
system.cpu.itb.rdMisses                             0                       # TLB misses on read requests
system.cpu.itb.wrMisses                           198                       # TLB misses on write requests
system.cpu.workload.numSyscalls                    36                       # Number of system calls
system.cpu.pwrStateResidencyTicks::ON     41369000000                       # Cumulative time (in ticks) in various power states
system.cpu.numCycles                         82738001                       # number of cpu cycles simulated
system.cpu.numWorkItemsStarted                      0                       # number of work items this cpu started
system.cpu.numWorkItemsCompleted                    0                       # number of work items this cpu completed
system.cpu.fetch.icacheStallCycles             289143                       # Number of cycles fetch is stalled on an Icache miss
system.cpu.fetch.Insts                       68866274                       # Number of instructions fetch has processed
system.cpu.fetch.Branches                    11739088                       # Number of branches that fetch encountered
system.cpu.fetch.predictedBranches            5945833                       # Number of branches that fetch has predicted taken
system.cpu.fetch.Cycles                      82143987                       # Number of cycles fetch has run and was not squashing or blocked
system.cpu.fetch.SquashCycles                  529838                       # Number of cycles fetch has spent squashing
system.cpu.fetch.MiscStallCycles                   88                       # Number of cycles fetch has spent waiting on interrupts, or bad addresses, or out of MSHRs
system.cpu.fetch.PendingTrapStallCycles          1392                       # Number of stall cycles due to pending traps
system.cpu.fetch.PendingQuiesceStallCycles           11                       # Number of stall cycles due to pending quiesce instructions
system.cpu.fetch.CacheLines                   9051308                       # Number of cache lines fetched
system.cpu.fetch.IcacheSquashes                   462                       # Number of outstanding Icache misses that were squashed
system.cpu.fetch.rateDist::samples           82699540                       # Number of instructions fetched each cycle (Total)
system.cpu.fetch.rateDist::mean              1.469820                       # Number of instructions fetched each cycle (Total)
system.cpu.fetch.rateDist::stdev             0.841050                       # Number of instructions fetched each cycle (Total)
system.cpu.fetch.rateDist::underflows               0      0.00%      0.00% # Number of instructions fetched each cycle (Total)
system.cpu.fetch.rateDist::0                 18949596     22.91%     22.91% # Number of instructions fetched each cycle (Total)
system.cpu.fetch.rateDist::1                  5946467      7.19%     30.10% # Number of instructions fetched each cycle (Total)
system.cpu.fetch.rateDist::2                 57803477     69.90%    100.00% # Number of instructions fetched each cycle (Total)
system.cpu.fetch.rateDist::overflows                0      0.00%    100.00% # Number of instructions fetched each cycle (Total)
system.cpu.fetch.rateDist::min_value                0                       # Number of instructions fetched each cycle (Total)
system.cpu.fetch.rateDist::max_value                2                       # Number of instructions fetched each cycle (Total)
system.cpu.fetch.rateDist::total             82699540                       # Number of instructions fetched each cycle (Total)
system.cpu.fetch.branchRate                  0.141883                       # Number of branch fetches per cycle
system.cpu.fetch.rate                        0.832342                       # Number of inst fetches per cycle
system.cpu.decode.IdleCycles                  5229459                       # Number of cycles decode is idle
system.cpu.decode.BlockedCycles              16043533                       # Number of cycles decode is blocked
system.cpu.decode.RunCycles                  55176884                       # Number of cycles decode is running
system.cpu.decode.UnblockCycles               5984745                       # Number of cycles decode is unblocking
system.cpu.decode.SquashCycles                 264919                       # Number of cycles decode is squashing
system.cpu.decode.DecodedInsts              118480830                       # Number of instructions handled by decode
system.cpu.decode.SquashedInsts               1034836                       # Number of squashed instructions handled by decode
system.cpu.rename.SquashCycles                 264919                       # Number of cycles rename is squashing
system.cpu.rename.IdleCycles                  9319817                       # Number of cycles rename is idle
system.cpu.rename.BlockCycles                 8329672                       # Number of cycles rename is blocking
system.cpu.rename.serializeStallCycles           2285                       # count of cycles rename stalled for serializing inst
system.cpu.rename.RunCycles                  56416477                       # Number of cycles rename is running
system.cpu.rename.UnblockCycles               8366370                       # Number of cycles rename is unblocking
system.cpu.rename.RenamedInsts              117489997                       # Number of instructions processed by rename
system.cpu.rename.SquashedInsts                524524                       # Number of squashed instructions processed by rename
system.cpu.rename.ROBFullEvents                    48                       # Number of times rename has blocked due to ROB full
system.cpu.rename.IQFullEvents                3497350                       # Number of times rename has blocked due to IQ full
system.cpu.rename.SQFullEvents                1792419                       # Number of times rename has blocked due to SQ full
system.cpu.rename.FullRegisterEvents             4708                       # Number of times there has been no free registers
system.cpu.rename.RenamedOperands           139171529                       # Number of destination operands rename has renamed
system.cpu.rename.RenameLookups             288465675                       # Number of register rename lookups that rename has made
system.cpu.rename.int_rename_lookups        181250217                       # Number of integer rename lookups
system.cpu.rename.fp_rename_lookups            266370                       # Number of floating rename lookups
system.cpu.rename.CommittedMaps             130921918                       # Number of HB maps that are committed
system.cpu.rename.UndoneMaps                  8249611                       # Number of HB maps that are undone due to squashing
system.cpu.rename.serializingInsts                 53                       # count of serializing insts renamed
system.cpu.rename.tempSerializingInsts             50                       # count of temporary serializing insts renamed
system.cpu.rename.skidInsts                   9886563                       # count of insts added to the skid buffer
system.cpu.memDep0.insertedLoads             20132219                       # Number of loads inserted to the mem dependence unit.
system.cpu.memDep0.insertedStores             9177956                       # Number of stores inserted to the mem dependence unit.
system.cpu.memDep0.conflictingLoads           6116144                       # Number of conflicting loads.
system.cpu.memDep0.conflictingStores          1225243                       # Number of conflicting stores.
system.cpu.iq.iqInstsAdded                  116433328                       # Number of instructions added to the IQ (excludes non-spec)
system.cpu.iq.iqNonSpecInstsAdded                 174                       # Number of non-speculative instructions added to the IQ
system.cpu.iq.iqInstsIssued                 113938770                       # Number of instructions issued
system.cpu.iq.iqSquashedInstsIssued            295112                       # Number of squashed instructions issued
system.cpu.iq.iqSquashedInstsExamined         6393816                       # Number of squashed instructions iterated over during squash; mainly for profiling
system.cpu.iq.iqSquashedOperandsExamined      8777302                       # Number of squashed operands that are examined and possibly removed from graph
system.cpu.iq.iqSquashedNonSpecRemoved            138                       # Number of squashed non-spec instructions that were removed
system.cpu.iq.issued_per_cycle::samples      82699540                       # Number of insts issued each cycle
system.cpu.iq.issued_per_cycle::mean         1.377744                       # Number of insts issued each cycle
system.cpu.iq.issued_per_cycle::stdev        0.787363                       # Number of insts issued each cycle
system.cpu.iq.issued_per_cycle::underflows            0      0.00%      0.00% # Number of insts issued each cycle
system.cpu.iq.issued_per_cycle::0            15914967     19.24%     19.24% # Number of insts issued each cycle
system.cpu.iq.issued_per_cycle::1            19630376     23.74%     42.98% # Number of insts issued each cycle
system.cpu.iq.issued_per_cycle::2            47154197     57.02%    100.00% # Number of insts issued each cycle
system.cpu.iq.issued_per_cycle::overflows            0      0.00%    100.00% # Number of insts issued each cycle
system.cpu.iq.issued_per_cycle::min_value            0                       # Number of insts issued each cycle
system.cpu.iq.issued_per_cycle::max_value            2                       # Number of insts issued each cycle
system.cpu.iq.issued_per_cycle::total        82699540                       # Number of insts issued each cycle
system.cpu.iq.fu_full::No_OpClass                   0      0.00%      0.00% # attempts to use FU when none available
system.cpu.iq.fu_full::IntAlu                       0      0.00%      0.00% # attempts to use FU when none available
system.cpu.iq.fu_full::IntMult                      0      0.00%      0.00% # attempts to use FU when none available
system.cpu.iq.fu_full::IntDiv                       0      0.00%      0.00% # attempts to use FU when none available
system.cpu.iq.fu_full::FloatAdd                     0      0.00%      0.00% # attempts to use FU when none available
system.cpu.iq.fu_full::FloatCmp                     0      0.00%      0.00% # attempts to use FU when none available
system.cpu.iq.fu_full::FloatCvt                     0      0.00%      0.00% # attempts to use FU when none available
system.cpu.iq.fu_full::FloatMult                    0      0.00%      0.00% # attempts to use FU when none available
system.cpu.iq.fu_full::FloatMultAcc                 0      0.00%      0.00% # attempts to use FU when none available
system.cpu.iq.fu_full::FloatDiv                     0      0.00%      0.00% # attempts to use FU when none available
system.cpu.iq.fu_full::FloatMisc                    0      0.00%      0.00% # attempts to use FU when none available
system.cpu.iq.fu_full::FloatSqrt                    0      0.00%      0.00% # attempts to use FU when none available
system.cpu.iq.fu_full::SimdAdd                    247      0.01%      0.01% # attempts to use FU when none available
system.cpu.iq.fu_full::SimdAddAcc                   0      0.00%      0.01% # attempts to use FU when none available
system.cpu.iq.fu_full::SimdAlu                     65      0.00%      0.01% # attempts to use FU when none available
system.cpu.iq.fu_full::SimdCmp                      0      0.00%      0.01% # attempts to use FU when none available
system.cpu.iq.fu_full::SimdCvt                     44      0.00%      0.01% # attempts to use FU when none available
system.cpu.iq.fu_full::SimdMisc                   140      0.00%      0.01% # attempts to use FU when none available
system.cpu.iq.fu_full::SimdMult                     0      0.00%      0.01% # attempts to use FU when none available
system.cpu.iq.fu_full::SimdMultAcc                  0      0.00%      0.01% # attempts to use FU when none available
system.cpu.iq.fu_full::SimdShift                  121      0.00%      0.01% # attempts to use FU when none available
system.cpu.iq.fu_full::SimdShiftAcc                 0      0.00%      0.01% # attempts to use FU when none available
system.cpu.iq.fu_full::SimdSqrt                     0      0.00%      0.01% # attempts to use FU when none available
system.cpu.iq.fu_full::SimdFloatAdd                 0      0.00%      0.01% # attempts to use FU when none available
system.cpu.iq.fu_full::SimdFloatAlu                 0      0.00%      0.01% # attempts to use FU when none available
system.cpu.iq.fu_full::SimdFloatCmp                 0      0.00%      0.01% # attempts to use FU when none available
system.cpu.iq.fu_full::SimdFloatCvt                 0      0.00%      0.01% # attempts to use FU when none available
system.cpu.iq.fu_full::SimdFloatDiv                 0      0.00%      0.01% # attempts to use FU when none available
system.cpu.iq.fu_full::SimdFloatMisc                0      0.00%      0.01% # attempts to use FU when none available
system.cpu.iq.fu_full::SimdFloatMult                0      0.00%      0.01% # attempts to use FU when none available
system.cpu.iq.fu_full::SimdFloatMultAcc             0      0.00%      0.01% # attempts to use FU when none available
system.cpu.iq.fu_full::SimdFloatSqrt                0      0.00%      0.01% # attempts to use FU when none available
system.cpu.iq.fu_full::SimdAes                      0      0.00%      0.01% # attempts to use FU when none available
system.cpu.iq.fu_full::SimdAesMix                   0      0.00%      0.01% # attempts to use FU when none available
system.cpu.iq.fu_full::SimdSha1Hash                 0      0.00%      0.01% # attempts to use FU when none available
system.cpu.iq.fu_full::SimdSha1Hash2                0      0.00%      0.01% # attempts to use FU when none available
system.cpu.iq.fu_full::SimdSha256Hash               0      0.00%      0.01% # attempts to use FU when none available
system.cpu.iq.fu_full::SimdSha256Hash2              0      0.00%      0.01% # attempts to use FU when none available
system.cpu.iq.fu_full::SimdShaSigma2                0      0.00%      0.01% # attempts to use FU when none available
system.cpu.iq.fu_full::SimdShaSigma3                0      0.00%      0.01% # attempts to use FU when none available
system.cpu.iq.fu_full::MemRead                4043513     86.22%     86.23% # attempts to use FU when none available
system.cpu.iq.fu_full::MemWrite                645882     13.77%    100.00% # attempts to use FU when none available
system.cpu.iq.fu_full::FloatMemRead                 0      0.00%    100.00% # attempts to use FU when none available
system.cpu.iq.fu_full::FloatMemWrite                0      0.00%    100.00% # attempts to use FU when none available
system.cpu.iq.fu_full::IprAccess                    0      0.00%    100.00% # attempts to use FU when none available
system.cpu.iq.fu_full::InstPrefetch                 0      0.00%    100.00% # attempts to use FU when none available
system.cpu.iq.FU_type_0::No_OpClass            241284      0.21%      0.21% # Type of FU issued
system.cpu.iq.FU_type_0::IntAlu              84315596     74.00%     74.21% # Type of FU issued
system.cpu.iq.FU_type_0::IntMult               646196      0.57%     74.78% # Type of FU issued
system.cpu.iq.FU_type_0::IntDiv                    31      0.00%     74.78% # Type of FU issued
system.cpu.iq.FU_type_0::FloatAdd               65552      0.06%     74.84% # Type of FU issued
system.cpu.iq.FU_type_0::FloatCmp                   0      0.00%     74.84% # Type of FU issued
system.cpu.iq.FU_type_0::FloatCvt                   0      0.00%     74.84% # Type of FU issued
system.cpu.iq.FU_type_0::FloatMult                  0      0.00%     74.84% # Type of FU issued
system.cpu.iq.FU_type_0::FloatMultAcc               0      0.00%     74.84% # Type of FU issued
system.cpu.iq.FU_type_0::FloatDiv                   0      0.00%     74.84% # Type of FU issued
system.cpu.iq.FU_type_0::FloatMisc                  0      0.00%     74.84% # Type of FU issued
system.cpu.iq.FU_type_0::FloatSqrt                  0      0.00%     74.84% # Type of FU issued
system.cpu.iq.FU_type_0::SimdAdd                  375      0.00%     74.84% # Type of FU issued
system.cpu.iq.FU_type_0::SimdAddAcc                 0      0.00%     74.84% # Type of FU issued
system.cpu.iq.FU_type_0::SimdAlu                   98      0.00%     74.84% # Type of FU issued
system.cpu.iq.FU_type_0::SimdCmp                    0      0.00%     74.84% # Type of FU issued
system.cpu.iq.FU_type_0::SimdCvt                  147      0.00%     74.84% # Type of FU issued
system.cpu.iq.FU_type_0::SimdMisc                 258      0.00%     74.84% # Type of FU issued
system.cpu.iq.FU_type_0::SimdMult                   0      0.00%     74.84% # Type of FU issued
system.cpu.iq.FU_type_0::SimdMultAcc                0      0.00%     74.84% # Type of FU issued
system.cpu.iq.FU_type_0::SimdShift                186      0.00%     74.84% # Type of FU issued
system.cpu.iq.FU_type_0::SimdShiftAcc               0      0.00%     74.84% # Type of FU issued
system.cpu.iq.FU_type_0::SimdSqrt                   0      0.00%     74.84% # Type of FU issued
system.cpu.iq.FU_type_0::SimdFloatAdd               0      0.00%     74.84% # Type of FU issued
system.cpu.iq.FU_type_0::SimdFloatAlu               0      0.00%     74.84% # Type of FU issued
system.cpu.iq.FU_type_0::SimdFloatCmp               0      0.00%     74.84% # Type of FU issued
system.cpu.iq.FU_type_0::SimdFloatCvt               0      0.00%     74.84% # Type of FU issued
system.cpu.iq.FU_type_0::SimdFloatDiv               0      0.00%     74.84% # Type of FU issued
system.cpu.iq.FU_type_0::SimdFloatMisc              0      0.00%     74.84% # Type of FU issued
system.cpu.iq.FU_type_0::SimdFloatMult              0      0.00%     74.84% # Type of FU issued
system.cpu.iq.FU_type_0::SimdFloatMultAcc            0      0.00%     74.84% # Type of FU issued
system.cpu.iq.FU_type_0::SimdFloatSqrt              0      0.00%     74.84% # Type of FU issued
system.cpu.iq.FU_type_0::SimdAes                    0      0.00%     74.84% # Type of FU issued
system.cpu.iq.FU_type_0::SimdAesMix                 0      0.00%     74.84% # Type of FU issued
system.cpu.iq.FU_type_0::SimdSha1Hash               0      0.00%     74.84% # Type of FU issued
system.cpu.iq.FU_type_0::SimdSha1Hash2              0      0.00%     74.84% # Type of FU issued
system.cpu.iq.FU_type_0::SimdSha256Hash             0      0.00%     74.84% # Type of FU issued
system.cpu.iq.FU_type_0::SimdSha256Hash2            0      0.00%     74.84% # Type of FU issued
system.cpu.iq.FU_type_0::SimdShaSigma2              0      0.00%     74.84% # Type of FU issued
system.cpu.iq.FU_type_0::SimdShaSigma3              0      0.00%     74.84% # Type of FU issued
system.cpu.iq.FU_type_0::MemRead             19579626     17.18%     92.02% # Type of FU issued
system.cpu.iq.FU_type_0::MemWrite             8564457      7.52%     99.54% # Type of FU issued
system.cpu.iq.FU_type_0::FloatMemRead          262284      0.23%     99.77% # Type of FU issued
system.cpu.iq.FU_type_0::FloatMemWrite         262680      0.23%    100.00% # Type of FU issued
system.cpu.iq.FU_type_0::IprAccess                  0      0.00%    100.00% # Type of FU issued
system.cpu.iq.FU_type_0::InstPrefetch               0      0.00%    100.00% # Type of FU issued
system.cpu.iq.FU_type_0::total              113938770                       # Type of FU issued
system.cpu.iq.rate                           1.377103                       # Inst issue rate
system.cpu.iq.fu_busy_cnt                     4690012                       # FU busy when requested
system.cpu.iq.fu_busy_rate                   0.041163                       # FU busy rate (busy events/executed inst)
system.cpu.iq.int_inst_queue_reads          314377357                       # Number of integer instruction queue reads
system.cpu.iq.int_inst_queue_writes         122235335                       # Number of integer instruction queue writes
system.cpu.iq.int_inst_queue_wakeup_accesses    112263335                       # Number of integer instruction queue wakeup accesses
system.cpu.iq.fp_inst_queue_reads             1184847                       # Number of floating instruction queue reads
system.cpu.iq.fp_inst_queue_writes             592362                       # Number of floating instruction queue writes
system.cpu.iq.fp_inst_queue_wakeup_accesses       592058                       # Number of floating instruction queue wakeup accesses
system.cpu.iq.vec_inst_queue_reads                  0                       # Number of vector instruction queue reads
system.cpu.iq.vec_inst_queue_writes                 0                       # Number of vector instruction queue writes
system.cpu.iq.vec_inst_queue_wakeup_accesses            0                       # Number of vector instruction queue wakeup accesses
system.cpu.iq.int_alu_accesses              117794770                       # Number of integer alu accesses
system.cpu.iq.fp_alu_accesses                  592728                       # Number of floating point alu accesses
system.cpu.iq.vec_alu_accesses                      0                       # Number of vector alu accesses
system.cpu.iew.lsq.thread0.forwLoads          2281701                       # Number of loads that had data forwarded from stores
system.cpu.iew.lsq.thread0.invAddrLoads             0                       # Number of loads ignored due to an invalid address
system.cpu.iew.lsq.thread0.squashedLoads      1082337                       # Number of loads squashed
system.cpu.iew.lsq.thread0.ignoredResponses           50                       # Number of memory responses ignored because the instruction is squashed
system.cpu.iew.lsq.thread0.memOrderViolation          379                       # Number of memory ordering violations
system.cpu.iew.lsq.thread0.squashedStores       526432                       # Number of stores squashed
system.cpu.iew.lsq.thread0.invAddrSwpfs             0                       # Number of software prefetches ignored due to an invalid address
system.cpu.iew.lsq.thread0.blockedLoads             0                       # Number of blocked loads due to partial load-store forwarding
system.cpu.iew.lsq.thread0.rescheduledLoads            1                       # Number of loads that were rescheduled
system.cpu.iew.lsq.thread0.cacheBlocked            49                       # Number of times an access to memory failed due to the cache being blocked
system.cpu.iew.iewIdleCycles                        0                       # Number of cycles IEW is idle
system.cpu.iew.iewSquashCycles                 264919                       # Number of cycles IEW is squashing
system.cpu.iew.iewBlockCycles                 1262441                       # Number of cycles IEW is blocking
system.cpu.iew.iewUnblockCycles                389408                       # Number of cycles IEW is unblocking
system.cpu.iew.iewDispatchedInsts           116433502                       # Number of instructions dispatched to IQ
system.cpu.iew.iewDispSquashedInsts            261685                       # Number of squashed instructions skipped by dispatch
system.cpu.iew.iewDispLoadInsts              20132219                       # Number of dispatched load instructions
system.cpu.iew.iewDispStoreInsts              9177956                       # Number of dispatched store instructions
system.cpu.iew.iewDispNonSpecInsts                 85                       # Number of dispatched non-speculative instructions
system.cpu.iew.iewIQFullEvents                 250565                       # Number of times the IQ has become full, causing a stall
system.cpu.iew.iewLSQFullEvents                  6097                       # Number of times the LSQ has become full, causing a stall
system.cpu.iew.memOrderViolationEvents            379                       # Number of memory order violations
system.cpu.iew.predictedTakenIncorrect            865                       # Number of branches that were predicted taken incorrectly
system.cpu.iew.predictedNotTakenIncorrect       304370                       # Number of branches that were predicted not taken incorrectly
system.cpu.iew.branchMispredicts               305235                       # Number of branch mispredicts detected at execute
system.cpu.iew.iewExecutedInsts             113126913                       # Number of executed instructions
system.cpu.iew.iewExecLoadInsts              19646002                       # Number of load instructions executed
system.cpu.iew.iewExecSquashedInsts            811857                       # Number of squashed instructions skipped in execute
system.cpu.iew.exec_swp                             0                       # number of swp insts executed
system.cpu.iew.exec_nop                             0                       # number of nop insts executed
system.cpu.iew.exec_refs                     28386953                       # number of memory reference insts executed
system.cpu.iew.exec_branches                 10793364                       # Number of branches executed
system.cpu.iew.exec_stores                    8740951                       # Number of stores executed
system.cpu.iew.exec_rate                     1.367291                       # Inst execution rate
system.cpu.iew.wb_sent                      112972803                       # cumulative count of insts sent to commit
system.cpu.iew.wb_count                     112855393                       # cumulative count of insts written-back
system.cpu.iew.wb_producers                  84398639                       # num instructions producing a value
system.cpu.iew.wb_consumers                 117938063                       # num instructions consuming a value
system.cpu.iew.wb_rate                       1.364009                       # insts written-back per cycle
system.cpu.iew.wb_fanout                     0.715618                       # average fanout of values written-back
system.cpu.commit.commitSquashedInsts         5865248                       # The number of squashed insts skipped by commit
system.cpu.commit.commitNonSpecStalls              36                       # The number of times commit has been forced to stall to communicate backwards
system.cpu.commit.branchMispredicts            264543                       # The number of times a branch was mispredicted
system.cpu.commit.committed_per_cycle::samples     82213133                       # Number of insts commited each cycle
system.cpu.commit.committed_per_cycle::mean     1.338468                       # Number of insts commited each cycle
system.cpu.commit.committed_per_cycle::stdev     0.857622                       # Number of insts commited each cycle
system.cpu.commit.committed_per_cycle::underflows            0      0.00%      0.00% # Number of insts commited each cycle
system.cpu.commit.committed_per_cycle::0     21030476     25.58%     25.58% # Number of insts commited each cycle
system.cpu.commit.committed_per_cycle::1     12325629     14.99%     40.57% # Number of insts commited each cycle
system.cpu.commit.committed_per_cycle::2     48857028     59.43%    100.00% # Number of insts commited each cycle
system.cpu.commit.committed_per_cycle::overflows            0      0.00%    100.00% # Number of insts commited each cycle
system.cpu.commit.committed_per_cycle::min_value            0                       # Number of insts commited each cycle
system.cpu.commit.committed_per_cycle::max_value            2                       # Number of insts commited each cycle
system.cpu.commit.committed_per_cycle::total     82213133                       # Number of insts commited each cycle
system.cpu.commit.committedInsts             62525833                       # Number of instructions committed
system.cpu.commit.committedOps              110039685                       # Number of ops (including micro ops) committed
system.cpu.commit.swp_count                         0                       # Number of s/w prefetches committed
system.cpu.commit.refs                       27701406                       # Number of memory references committed
system.cpu.commit.loads                      19049882                       # Number of loads committed
system.cpu.commit.membars                           0                       # Number of memory barriers committed
system.cpu.commit.branches                   10575287                       # Number of branches committed
system.cpu.commit.vec_insts                         0                       # Number of committed Vector instructions.
system.cpu.commit.fp_insts                     591928                       # Number of committed floating point instructions.
system.cpu.commit.int_insts                 109906472                       # Number of committed integer instructions.
system.cpu.commit.function_calls               329514                       # Number of function calls committed.
system.cpu.commit.op_class_0::No_OpClass        66156      0.06%      0.06% # Class of committed instruction
system.cpu.commit.op_class_0::IntAlu         81559305     74.12%     74.18% # Class of committed instruction
system.cpu.commit.op_class_0::IntMult          646190      0.59%     74.77% # Class of committed instruction
system.cpu.commit.op_class_0::IntDiv               28      0.00%     74.77% # Class of committed instruction
system.cpu.commit.op_class_0::FloatAdd          65551      0.06%     74.83% # Class of committed instruction
system.cpu.commit.op_class_0::FloatCmp              0      0.00%     74.83% # Class of committed instruction
system.cpu.commit.op_class_0::FloatCvt              0      0.00%     74.83% # Class of committed instruction
system.cpu.commit.op_class_0::FloatMult             0      0.00%     74.83% # Class of committed instruction
system.cpu.commit.op_class_0::FloatMultAcc            0      0.00%     74.83% # Class of committed instruction
system.cpu.commit.op_class_0::FloatDiv              0      0.00%     74.83% # Class of committed instruction
system.cpu.commit.op_class_0::FloatMisc             0      0.00%     74.83% # Class of committed instruction
system.cpu.commit.op_class_0::FloatSqrt             0      0.00%     74.83% # Class of committed instruction
system.cpu.commit.op_class_0::SimdAdd             374      0.00%     74.83% # Class of committed instruction
system.cpu.commit.op_class_0::SimdAddAcc            0      0.00%     74.83% # Class of committed instruction
system.cpu.commit.op_class_0::SimdAlu              94      0.00%     74.83% # Class of committed instruction
system.cpu.commit.op_class_0::SimdCmp               0      0.00%     74.83% # Class of committed instruction
system.cpu.commit.op_class_0::SimdCvt             140      0.00%     74.83% # Class of committed instruction
system.cpu.commit.op_class_0::SimdMisc            255      0.00%     74.83% # Class of committed instruction
system.cpu.commit.op_class_0::SimdMult              0      0.00%     74.83% # Class of committed instruction
system.cpu.commit.op_class_0::SimdMultAcc            0      0.00%     74.83% # Class of committed instruction
system.cpu.commit.op_class_0::SimdShift           186      0.00%     74.83% # Class of committed instruction
system.cpu.commit.op_class_0::SimdShiftAcc            0      0.00%     74.83% # Class of committed instruction
system.cpu.commit.op_class_0::SimdSqrt              0      0.00%     74.83% # Class of committed instruction
system.cpu.commit.op_class_0::SimdFloatAdd            0      0.00%     74.83% # Class of committed instruction
system.cpu.commit.op_class_0::SimdFloatAlu            0      0.00%     74.83% # Class of committed instruction
system.cpu.commit.op_class_0::SimdFloatCmp            0      0.00%     74.83% # Class of committed instruction
system.cpu.commit.op_class_0::SimdFloatCvt            0      0.00%     74.83% # Class of committed instruction
system.cpu.commit.op_class_0::SimdFloatDiv            0      0.00%     74.83% # Class of committed instruction
system.cpu.commit.op_class_0::SimdFloatMisc            0      0.00%     74.83% # Class of committed instruction
system.cpu.commit.op_class_0::SimdFloatMult            0      0.00%     74.83% # Class of committed instruction
system.cpu.commit.op_class_0::SimdFloatMultAcc            0      0.00%     74.83% # Class of committed instruction
system.cpu.commit.op_class_0::SimdFloatSqrt            0      0.00%     74.83% # Class of committed instruction
system.cpu.commit.op_class_0::SimdAes               0      0.00%     74.83% # Class of committed instruction
system.cpu.commit.op_class_0::SimdAesMix            0      0.00%     74.83% # Class of committed instruction
system.cpu.commit.op_class_0::SimdSha1Hash            0      0.00%     74.83% # Class of committed instruction
system.cpu.commit.op_class_0::SimdSha1Hash2            0      0.00%     74.83% # Class of committed instruction
system.cpu.commit.op_class_0::SimdSha256Hash            0      0.00%     74.83% # Class of committed instruction
system.cpu.commit.op_class_0::SimdSha256Hash2            0      0.00%     74.83% # Class of committed instruction
system.cpu.commit.op_class_0::SimdShaSigma2            0      0.00%     74.83% # Class of committed instruction
system.cpu.commit.op_class_0::SimdShaSigma3            0      0.00%     74.83% # Class of committed instruction
system.cpu.commit.op_class_0::MemRead        18787650     17.07%     91.90% # Class of committed instruction
system.cpu.commit.op_class_0::MemWrite        8388953      7.62%     99.52% # Class of committed instruction
system.cpu.commit.op_class_0::FloatMemRead       262232      0.24%     99.76% # Class of committed instruction
system.cpu.commit.op_class_0::FloatMemWrite       262571      0.24%    100.00% # Class of committed instruction
system.cpu.commit.op_class_0::IprAccess             0      0.00%    100.00% # Class of committed instruction
system.cpu.commit.op_class_0::InstPrefetch            0      0.00%    100.00% # Class of committed instruction
system.cpu.commit.op_class_0::total         110039685                       # Class of committed instruction
system.cpu.commit.bw_lim_events              48857028                       # number cycles where commit BW limit reached
system.cpu.rob.rob_reads                    149261038                       # The number of ROB reads
system.cpu.rob.rob_writes                   232296274                       # The number of ROB writes
system.cpu.timesIdled                             453                       # Number of times that the entire CPU went into an idle state and unscheduled itself
system.cpu.idleCycles                           38461                       # Total number of cycles that the CPU has spent unscheduled due to idling
system.cpu.committedInsts                    62525833                       # Number of Instructions Simulated
system.cpu.committedOps                     110039685                       # Number of Ops (including micro ops) Simulated
system.cpu.cpi                               1.323261                       # CPI: Cycles Per Instruction
system.cpu.cpi_total                         1.323261                       # CPI: Total CPI of All Threads
system.cpu.ipc                               0.755709                       # IPC: Instructions Per Cycle
system.cpu.ipc_total                         0.755709                       # IPC: Total IPC of All Threads
system.cpu.int_regfile_reads                173149678                       # number of integer regfile reads
system.cpu.int_regfile_writes                93557660                       # number of integer regfile writes
system.cpu.fp_regfile_reads                    266291                       # number of floating regfile reads
system.cpu.fp_regfile_writes                   329341                       # number of floating regfile writes
system.cpu.cc_regfile_reads                  51509261                       # number of cc regfile reads
system.cpu.cc_regfile_writes                 40276425                       # number of cc regfile writes
system.cpu.misc_regfile_reads                50960743                       # number of misc regfile reads
system.cpu.dcache.tags.pwrStateResidencyTicks::UNDEFINED  41369000000                       # Cumulative time (in ticks) in various power states
system.cpu.dcache.tags.tagsinuse           255.867047                       # Cycle average of tags in use
system.cpu.dcache.tags.total_refs            26015357                       # Total number of references to valid blocks.
system.cpu.dcache.tags.sampled_refs             15744                       # Sample count of references to valid blocks.
system.cpu.dcache.tags.avg_refs           1652.398183                       # Average number of references to valid blocks.
system.cpu.dcache.tags.warmup_cycle            170000                       # Cycle when the warmup percentage was hit.
system.cpu.dcache.tags.occ_blocks::.cpu.data   255.867047                       # Average occupied blocks per requestor
system.cpu.dcache.tags.occ_percent::.cpu.data     0.999481                       # Average percentage of cache occupancy
system.cpu.dcache.tags.occ_percent::total     0.999481                       # Average percentage of cache occupancy
system.cpu.dcache.tags.occ_task_id_blocks::1024          256                       # Occupied blocks per task id
system.cpu.dcache.tags.age_task_id_blocks_1024::0          107                       # Occupied blocks per task id
system.cpu.dcache.tags.age_task_id_blocks_1024::1          147                       # Occupied blocks per task id
system.cpu.dcache.tags.age_task_id_blocks_1024::4            2                       # Occupied blocks per task id
system.cpu.dcache.tags.occ_task_id_percent::1024            1                       # Percentage of cache occupancy per task id
system.cpu.dcache.tags.tag_accesses         208141176                       # Number of tag accesses
system.cpu.dcache.tags.data_accesses        208141176                       # Number of data accesses
system.cpu.dcache.pwrStateResidencyTicks::UNDEFINED  41369000000                       # Cumulative time (in ticks) in various power states
system.cpu.dcache.ReadReq_hits::.cpu.data     17357107                       # number of ReadReq hits
system.cpu.dcache.ReadReq_hits::total        17357107                       # number of ReadReq hits
system.cpu.dcache.WriteReq_hits::.cpu.data      8641929                       # number of WriteReq hits
system.cpu.dcache.WriteReq_hits::total        8641929                       # number of WriteReq hits
system.cpu.dcache.demand_hits::.cpu.data     25999036                       # number of demand (read+write) hits
system.cpu.dcache.demand_hits::total         25999036                       # number of demand (read+write) hits
system.cpu.dcache.overall_hits::.cpu.data     25999036                       # number of overall hits
system.cpu.dcache.overall_hits::total        25999036                       # number of overall hits
system.cpu.dcache.ReadReq_misses::.cpu.data         7048                       # number of ReadReq misses
system.cpu.dcache.ReadReq_misses::total          7048                       # number of ReadReq misses
system.cpu.dcache.WriteReq_misses::.cpu.data         9595                       # number of WriteReq misses
system.cpu.dcache.WriteReq_misses::total         9595                       # number of WriteReq misses
system.cpu.dcache.demand_misses::.cpu.data        16643                       # number of demand (read+write) misses
system.cpu.dcache.demand_misses::total          16643                       # number of demand (read+write) misses
system.cpu.dcache.overall_misses::.cpu.data        16643                       # number of overall misses
system.cpu.dcache.overall_misses::total         16643                       # number of overall misses
system.cpu.dcache.ReadReq_miss_latency::.cpu.data    271096500                       # number of ReadReq miss cycles
system.cpu.dcache.ReadReq_miss_latency::total    271096500                       # number of ReadReq miss cycles
system.cpu.dcache.WriteReq_miss_latency::.cpu.data    832781999                       # number of WriteReq miss cycles
system.cpu.dcache.WriteReq_miss_latency::total    832781999                       # number of WriteReq miss cycles
system.cpu.dcache.demand_miss_latency::.cpu.data   1103878499                       # number of demand (read+write) miss cycles
system.cpu.dcache.demand_miss_latency::total   1103878499                       # number of demand (read+write) miss cycles
system.cpu.dcache.overall_miss_latency::.cpu.data   1103878499                       # number of overall miss cycles
system.cpu.dcache.overall_miss_latency::total   1103878499                       # number of overall miss cycles
system.cpu.dcache.ReadReq_accesses::.cpu.data     17364155                       # number of ReadReq accesses(hits+misses)
system.cpu.dcache.ReadReq_accesses::total     17364155                       # number of ReadReq accesses(hits+misses)
system.cpu.dcache.WriteReq_accesses::.cpu.data      8651524                       # number of WriteReq accesses(hits+misses)
system.cpu.dcache.WriteReq_accesses::total      8651524                       # number of WriteReq accesses(hits+misses)
system.cpu.dcache.demand_accesses::.cpu.data     26015679                       # number of demand (read+write) accesses
system.cpu.dcache.demand_accesses::total     26015679                       # number of demand (read+write) accesses
system.cpu.dcache.overall_accesses::.cpu.data     26015679                       # number of overall (read+write) accesses
system.cpu.dcache.overall_accesses::total     26015679                       # number of overall (read+write) accesses
system.cpu.dcache.ReadReq_miss_rate::.cpu.data     0.000406                       # miss rate for ReadReq accesses
system.cpu.dcache.ReadReq_miss_rate::total     0.000406                       # miss rate for ReadReq accesses
system.cpu.dcache.WriteReq_miss_rate::.cpu.data     0.001109                       # miss rate for WriteReq accesses
system.cpu.dcache.WriteReq_miss_rate::total     0.001109                       # miss rate for WriteReq accesses
system.cpu.dcache.demand_miss_rate::.cpu.data     0.000640                       # miss rate for demand accesses
system.cpu.dcache.demand_miss_rate::total     0.000640                       # miss rate for demand accesses
system.cpu.dcache.overall_miss_rate::.cpu.data     0.000640                       # miss rate for overall accesses
system.cpu.dcache.overall_miss_rate::total     0.000640                       # miss rate for overall accesses
system.cpu.dcache.ReadReq_avg_miss_latency::.cpu.data 38464.316118                       # average ReadReq miss latency
system.cpu.dcache.ReadReq_avg_miss_latency::total 38464.316118                       # average ReadReq miss latency
system.cpu.dcache.WriteReq_avg_miss_latency::.cpu.data 86793.329755                       # average WriteReq miss latency
system.cpu.dcache.WriteReq_avg_miss_latency::total 86793.329755                       # average WriteReq miss latency
system.cpu.dcache.demand_avg_miss_latency::.cpu.data 66326.894130                       # average overall miss latency
system.cpu.dcache.demand_avg_miss_latency::total 66326.894130                       # average overall miss latency
system.cpu.dcache.overall_avg_miss_latency::.cpu.data 66326.894130                       # average overall miss latency
[...]
system.l3cache.tags.occ_percent::.cpu.data     0.138158                       # Average percentage of cache occupancy
system.l3cache.tags.occ_percent::total       0.158203                       # Average percentage of cache occupancy
system.l3cache.tags.occ_task_id_blocks::1024         9524                       # Occupied blocks per task id
system.l3cache.tags.age_task_id_blocks_1024::0           68                       # Occupied blocks per task id
system.l3cache.tags.age_task_id_blocks_1024::1           18                       # Occupied blocks per task id
system.l3cache.tags.age_task_id_blocks_1024::2          205                       # Occupied blocks per task id
system.l3cache.tags.age_task_id_blocks_1024::3         2054                       # Occupied blocks per task id
system.l3cache.tags.age_task_id_blocks_1024::4         7179                       # Occupied blocks per task id
system.l3cache.tags.occ_task_id_percent::1024     0.290649                       # Percentage of cache occupancy per task id
system.l3cache.tags.tag_accesses               393412                       # Number of tag accesses
system.l3cache.tags.data_accesses              393412                       # Number of data accesses
system.l3cache.pwrStateResidencyTicks::UNDEFINED  41369000000                       # Cumulative time (in ticks) in various power states
system.l3cache.WritebackDirty_hits::.writebacks         9483                       # number of WritebackDirty hits
system.l3cache.WritebackDirty_hits::total         9483                       # number of WritebackDirty hits
system.l3cache.ReadExReq_hits::.cpu.data          314                       # number of ReadExReq hits
system.l3cache.ReadExReq_hits::total              314                       # number of ReadExReq hits
system.l3cache.ReadSharedReq_hits::.cpu.inst           10                       # number of ReadSharedReq hits
system.l3cache.ReadSharedReq_hits::.cpu.data         4662                       # number of ReadSharedReq hits
system.l3cache.ReadSharedReq_hits::total         4672                       # number of ReadSharedReq hits
system.l3cache.demand_hits::.cpu.inst              10                       # number of demand (read+write) hits
system.l3cache.demand_hits::.cpu.data            4976                       # number of demand (read+write) hits
system.l3cache.demand_hits::total                4986                       # number of demand (read+write) hits
system.l3cache.overall_hits::.cpu.inst             10                       # number of overall hits
system.l3cache.overall_hits::.cpu.data           4976                       # number of overall hits
system.l3cache.overall_hits::total               4986                       # number of overall hits
system.l3cache.ReadExReq_misses::.cpu.data         8489                       # number of ReadExReq misses
system.l3cache.ReadExReq_misses::total           8489                       # number of ReadExReq misses
system.l3cache.ReadSharedReq_misses::.cpu.inst          755                       # number of ReadSharedReq misses
system.l3cache.ReadSharedReq_misses::.cpu.data          280                       # number of ReadSharedReq misses
system.l3cache.ReadSharedReq_misses::total         1035                       # number of ReadSharedReq misses
system.l3cache.demand_misses::.cpu.inst           755                       # number of demand (read+write) misses
system.l3cache.demand_misses::.cpu.data          8769                       # number of demand (read+write) misses
system.l3cache.demand_misses::total              9524                       # number of demand (read+write) misses
system.l3cache.overall_misses::.cpu.inst          755                       # number of overall misses
system.l3cache.overall_misses::.cpu.data         8769                       # number of overall misses
system.l3cache.overall_misses::total             9524                       # number of overall misses
system.l3cache.ReadExReq_miss_latency::.cpu.data    700947000                       # number of ReadExReq miss cycles
system.l3cache.ReadExReq_miss_latency::total    700947000                       # number of ReadExReq miss cycles
system.l3cache.ReadSharedReq_miss_latency::.cpu.inst     56507000                       # number of ReadSharedReq miss cycles
system.l3cache.ReadSharedReq_miss_latency::.cpu.data     40865500                       # number of ReadSharedReq miss cycles
system.l3cache.ReadSharedReq_miss_latency::total     97372500                       # number of ReadSharedReq miss cycles
system.l3cache.demand_miss_latency::.cpu.inst     56507000                       # number of demand (read+write) miss cycles
system.l3cache.demand_miss_latency::.cpu.data    741812500                       # number of demand (read+write) miss cycles
system.l3cache.demand_miss_latency::total    798319500                       # number of demand (read+write) miss cycles
system.l3cache.overall_miss_latency::.cpu.inst     56507000                       # number of overall miss cycles
system.l3cache.overall_miss_latency::.cpu.data    741812500                       # number of overall miss cycles
system.l3cache.overall_miss_latency::total    798319500                       # number of overall miss cycles
system.l3cache.WritebackDirty_accesses::.writebacks         9483                       # number of WritebackDirty accesses(hits+misses)
system.l3cache.WritebackDirty_accesses::total         9483                       # number of WritebackDirty accesses(hits+misses)
system.l3cache.ReadExReq_accesses::.cpu.data         8803                       # number of ReadExReq accesses(hits+misses)
system.l3cache.ReadExReq_accesses::total         8803                       # number of ReadExReq accesses(hits+misses)
system.l3cache.ReadSharedReq_accesses::.cpu.inst          765                       # number of ReadSharedReq accesses(hits+misses)
system.l3cache.ReadSharedReq_accesses::.cpu.data         4942                       # number of ReadSharedReq accesses(hits+misses)
system.l3cache.ReadSharedReq_accesses::total         5707                       # number of ReadSharedReq accesses(hits+misses)
system.l3cache.demand_accesses::.cpu.inst          765                       # number of demand (read+write) accesses
system.l3cache.demand_accesses::.cpu.data        13745                       # number of demand (read+write) accesses
system.l3cache.demand_accesses::total           14510                       # number of demand (read+write) accesses
system.l3cache.overall_accesses::.cpu.inst          765                       # number of overall (read+write) accesses
system.l3cache.overall_accesses::.cpu.data        13745                       # number of overall (read+write) accesses
system.l3cache.overall_accesses::total          14510                       # number of overall (read+write) accesses
system.l3cache.ReadExReq_miss_rate::.cpu.data     0.964330                       # miss rate for ReadExReq accesses
system.l3cache.ReadExReq_miss_rate::total     0.964330                       # miss rate for ReadExReq accesses
system.l3cache.ReadSharedReq_miss_rate::.cpu.inst     0.986928                       # miss rate for ReadSharedReq accesses
system.l3cache.ReadSharedReq_miss_rate::.cpu.data     0.056657                       # miss rate for ReadSharedReq accesses
system.l3cache.ReadSharedReq_miss_rate::total     0.181356                       # miss rate for ReadSharedReq accesses
system.l3cache.demand_miss_rate::.cpu.inst     0.986928                       # miss rate for demand accesses
system.l3cache.demand_miss_rate::.cpu.data     0.637977                       # miss rate for demand accesses
system.l3cache.demand_miss_rate::total       0.656375                       # miss rate for demand accesses
system.l3cache.overall_miss_rate::.cpu.inst     0.986928                       # miss rate for overall accesses
system.l3cache.overall_miss_rate::.cpu.data     0.637977                       # miss rate for overall accesses
system.l3cache.overall_miss_rate::total      0.656375                       # miss rate for overall accesses
system.l3cache.ReadExReq_avg_miss_latency::.cpu.data 82571.209801                       # average ReadExReq miss latency
system.l3cache.ReadExReq_avg_miss_latency::total 82571.209801                       # average ReadExReq miss latency
system.l3cache.ReadSharedReq_avg_miss_latency::.cpu.inst 74843.708609                       # average ReadSharedReq miss latency
system.l3cache.ReadSharedReq_avg_miss_latency::.cpu.data 145948.214286                       # average ReadSharedReq miss latency
system.l3cache.ReadSharedReq_avg_miss_latency::total 94079.710145                       # average ReadSharedReq miss latency
system.l3cache.demand_avg_miss_latency::.cpu.inst 74843.708609                       # average overall miss latency
system.l3cache.demand_avg_miss_latency::.cpu.data 84594.879690                       # average overall miss latency
system.l3cache.demand_avg_miss_latency::total 83821.871063                       # average overall miss latency
system.l3cache.overall_avg_miss_latency::.cpu.inst 74843.708609                       # average overall miss latency
system.l3cache.overall_avg_miss_latency::.cpu.data 84594.879690                       # average overall miss latency
system.l3cache.overall_avg_miss_latency::total 83821.871063                       # average overall miss latency
system.l3cache.blocked_cycles::no_mshrs             0                       # number of cycles access was blocked
system.l3cache.blocked_cycles::no_targets            0                       # number of cycles access was blocked
system.l3cache.blocked::no_mshrs                    0                       # number of cycles access was blocked
system.l3cache.blocked::no_targets                  0                       # number of cycles access was blocked
system.l3cache.avg_blocked_cycles::no_mshrs          nan                       # average number of cycles each access was blocked
system.l3cache.avg_blocked_cycles::no_targets          nan                       # average number of cycles each access was blocked
system.l3cache.ReadExReq_mshr_misses::.cpu.data         8489                       # number of ReadExReq MSHR misses
system.l3cache.ReadExReq_mshr_misses::total         8489                       # number of ReadExReq MSHR misses
system.l3cache.ReadSharedReq_mshr_misses::.cpu.inst          755                       # number of ReadSharedReq MSHR misses
system.l3cache.ReadSharedReq_mshr_misses::.cpu.data          280                       # number of ReadSharedReq MSHR misses
system.l3cache.ReadSharedReq_mshr_misses::total         1035                       # number of ReadSharedReq MSHR misses
system.l3cache.demand_mshr_misses::.cpu.inst          755                       # number of demand (read+write) MSHR misses
system.l3cache.demand_mshr_misses::.cpu.data         8769                       # number of demand (read+write) MSHR misses
system.l3cache.demand_mshr_misses::total         9524                       # number of demand (read+write) MSHR misses
system.l3cache.overall_mshr_misses::.cpu.inst          755                       # number of overall MSHR misses
system.l3cache.overall_mshr_misses::.cpu.data         8769                       # number of overall MSHR misses
system.l3cache.overall_mshr_misses::total         9524                       # number of overall MSHR misses
system.l3cache.ReadExReq_mshr_miss_latency::.cpu.data    683969000                       # number of ReadExReq MSHR miss cycles
system.l3cache.ReadExReq_mshr_miss_latency::total    683969000                       # number of ReadExReq MSHR miss cycles
system.l3cache.ReadSharedReq_mshr_miss_latency::.cpu.inst     54997000                       # number of ReadSharedReq MSHR miss cycles
system.l3cache.ReadSharedReq_mshr_miss_latency::.cpu.data     40305500                       # number of ReadSharedReq MSHR miss cycles
system.l3cache.ReadSharedReq_mshr_miss_latency::total     95302500                       # number of ReadSharedReq MSHR miss cycles
system.l3cache.demand_mshr_miss_latency::.cpu.inst     54997000                       # number of demand (read+write) MSHR miss cycles
system.l3cache.demand_mshr_miss_latency::.cpu.data    724274500                       # number of demand (read+write) MSHR miss cycles
system.l3cache.demand_mshr_miss_latency::total    779271500                       # number of demand (read+write) MSHR miss cycles
system.l3cache.overall_mshr_miss_latency::.cpu.inst     54997000                       # number of overall MSHR miss cycles
system.l3cache.overall_mshr_miss_latency::.cpu.data    724274500                       # number of overall MSHR miss cycles
system.l3cache.overall_mshr_miss_latency::total    779271500                       # number of overall MSHR miss cycles
system.l3cache.ReadExReq_mshr_miss_rate::.cpu.data     0.964330                       # mshr miss rate for ReadExReq accesses
system.l3cache.ReadExReq_mshr_miss_rate::total     0.964330                       # mshr miss rate for ReadExReq accesses
system.l3cache.ReadSharedReq_mshr_miss_rate::.cpu.inst     0.986928                       # mshr miss rate for ReadSharedReq accesses
system.l3cache.ReadSharedReq_mshr_miss_rate::.cpu.data     0.056657                       # mshr miss rate for ReadSharedReq accesses
system.l3cache.ReadSharedReq_mshr_miss_rate::total     0.181356                       # mshr miss rate for ReadSharedReq accesses
system.l3cache.demand_mshr_miss_rate::.cpu.inst     0.986928                       # mshr miss rate for demand accesses
system.l3cache.demand_mshr_miss_rate::.cpu.data     0.637977                       # mshr miss rate for demand accesses
system.l3cache.demand_mshr_miss_rate::total     0.656375                       # mshr miss rate for demand accesses
system.l3cache.overall_mshr_miss_rate::.cpu.inst     0.986928                       # mshr miss rate for overall accesses
system.l3cache.overall_mshr_miss_rate::.cpu.data     0.637977                       # mshr miss rate for overall accesses
system.l3cache.overall_mshr_miss_rate::total     0.656375                       # mshr miss rate for overall accesses
system.l3cache.ReadExReq_avg_mshr_miss_latency::.cpu.data 80571.209801                       # average ReadExReq mshr miss latency
system.l3cache.ReadExReq_avg_mshr_miss_latency::total 80571.209801                       # average ReadExReq mshr miss latency
system.l3cache.ReadSharedReq_avg_mshr_miss_latency::.cpu.inst 72843.708609                       # average ReadSharedReq mshr miss latency
system.l3cache.ReadSharedReq_avg_mshr_miss_latency::.cpu.data 143948.214286                       # average ReadSharedReq mshr miss latency
system.l3cache.ReadSharedReq_avg_mshr_miss_latency::total 92079.710145                       # average ReadSharedReq mshr miss latency
system.l3cache.demand_avg_mshr_miss_latency::.cpu.inst 72843.708609                       # average overall mshr miss latency
system.l3cache.demand_avg_mshr_miss_latency::.cpu.data 82594.879690                       # average overall mshr miss latency
system.l3cache.demand_avg_mshr_miss_latency::total 81821.871063                       # average overall mshr miss latency
system.l3cache.overall_avg_mshr_miss_latency::.cpu.inst 72843.708609                       # average overall mshr miss latency
system.l3cache.overall_avg_mshr_miss_latency::.cpu.data 82594.879690                       # average overall mshr miss latency
system.l3cache.overall_avg_mshr_miss_latency::total 81821.871063                       # average overall mshr miss latency
system.l3cache.replacements                         0                       # number of replacements
system.membus.snoop_filter.tot_requests          9524                       # Total number of requests made to the snoop filter.
system.membus.snoop_filter.hit_single_requests            0                       # Number of requests hitting in the snoop filter with a single holder of the requested data.
system.membus.snoop_filter.hit_multi_requests            0                       # Number of requests hitting in the snoop filter with multiple (>1) holders of the requested data.
system.membus.snoop_filter.tot_snoops               0                       # Total number of snoops made to the snoop filter.
system.membus.snoop_filter.hit_single_snoops            0                       # Number of snoops hitting in the snoop filter with a single holder of the requested data.
system.membus.snoop_filter.hit_multi_snoops            0                       # Number of snoops hitting in the snoop filter with multiple (>1) holders of the requested data.
system.membus.pwrStateResidencyTicks::UNDEFINED  41369000000                       # Cumulative time (in ticks) in various power states
system.membus.trans_dist::ReadResp               1035                       # Transaction distribution
system.membus.trans_dist::ReadExReq              8489                       # Transaction distribution
system.membus.trans_dist::ReadExResp             8489                       # Transaction distribution
system.membus.trans_dist::ReadSharedReq          1035                       # Transaction distribution
system.membus.pkt_count_system.l3cache.mem_side::system.mem_ctrl.port        19048                       # Packet count per connected master and slave (bytes)
system.membus.pkt_count_system.l3cache.mem_side::total        19048                       # Packet count per connected master and slave (bytes)
system.membus.pkt_count::total                  19048                       # Packet count per connected master and slave (bytes)
system.membus.pkt_size_system.l3cache.mem_side::system.mem_ctrl.port       609536                       # Cumulative packet size per connected master and slave (bytes)
system.membus.pkt_size_system.l3cache.mem_side::total       609536                       # Cumulative packet size per connected master and slave (bytes)
system.membus.pkt_size::total                  609536                       # Cumulative packet size per connected master and slave (bytes)
system.membus.snoops                                0                       # Total snoops (count)
system.membus.snoopTraffic                          0                       # Total snoop traffic (bytes)
system.membus.snoop_fanout::samples              9524                       # Request fanout histogram
system.membus.snoop_fanout::mean                    0                       # Request fanout histogram
system.membus.snoop_fanout::stdev                   0                       # Request fanout histogram
system.membus.snoop_fanout::underflows              0      0.00%      0.00% # Request fanout histogram
system.membus.snoop_fanout::0                    9524    100.00%    100.00% # Request fanout histogram
system.membus.snoop_fanout::1                       0      0.00%    100.00% # Request fanout histogram
system.membus.snoop_fanout::overflows               0      0.00%    100.00% # Request fanout histogram
system.membus.snoop_fanout::min_value               0                       # Request fanout histogram
system.membus.snoop_fanout::max_value               0                       # Request fanout histogram
system.membus.snoop_fanout::total                9524                       # Request fanout histogram
system.membus.reqLayer0.occupancy             4762000                       # Layer occupancy (ticks)
system.membus.reqLayer0.utilization               0.0                       # Layer utilization (%)
system.membus.respLayer0.occupancy           24857500                       # Layer occupancy (ticks)
system.membus.respLayer0.utilization              0.1                       # Layer utilization (%)

---------- End Simulation Statistics   ----------