
---------- Begin Simulation Statistics ----------
sim_seconds                                  0.037789                       # Number of seconds simulated
sim_ticks                                 37788981500                       # Number of ticks simulated
final_tick                                37788981500                       # Number of ticks from beginning of simulation (restored from checkpoints and never reset)
sim_freq                                 1000000000000                       # Frequency of simulated ticks
host_inst_rate                                 295117                       # Simulator instruction rate (inst/s)
host_op_rate                                   519378                       # Simulator op (including micro ops) rate (op/s)
host_tick_rate                              178360777                       # Simulator tick rate (ticks/s)
host_mem_usage                                 660360                       # Number of bytes of host memory used
host_seconds                                   211.87                       # Real time elapsed on the host
sim_insts                                    62525833                       # Number of instructions simulated
sim_ops                                     110039685                       # Number of ops (including micro ops) simulated
system.clk_domain.voltage_domain.voltage            1                       # Voltage in Volts
system.clk_domain.clock                           500                       # Clock period in ticks
system.mem_ctrl.pwrStateResidencyTicks::UNDEFINED  37788981500                       # Cumulative time (in ticks) in various power states
system.mem_ctrl.bytes_read::.cpu.inst           50880                       # Number of bytes read from this memory
system.mem_ctrl.bytes_read::.cpu.data          561600                       # Number of bytes read from this memory
system.mem_ctrl.bytes_read::total              612480                       # Number of bytes read from this memory
system.mem_ctrl.bytes_inst_read::.cpu.inst        50880                       # Number of instructions bytes read from this memory
system.mem_ctrl.bytes_inst_read::total          50880                       # Number of instructions bytes read from this memory
system.mem_ctrl.num_reads::.cpu.inst              795                       # Number of read requests responded to by this memory
system.mem_ctrl.num_reads::.cpu.data             8775                       # Number of read requests responded to by this memory
system.mem_ctrl.num_reads::total                 9570                       # Number of read requests responded to by this memory
system.mem_ctrl.bw_read::.cpu.inst            1346424                       # Total read bandwidth from this memory (bytes/s)
system.mem_ctrl.bw_read::.cpu.data           14861475                       # Total read bandwidth from this memory (bytes/s)
system.mem_ctrl.bw_read::total               16207899                       # Total read bandwidth from this memory (bytes/s)
system.mem_ctrl.bw_inst_read::.cpu.inst       1346424                       # Instruction read bandwidth from this memory (bytes/s)
system.mem_ctrl.bw_inst_read::total           1346424                       # Instruction read bandwidth from this memory (bytes/s)
system.mem_ctrl.bw_total::.cpu.inst           1346424                       # Total bandwidth to/from this memory (bytes/s)
system.mem_ctrl.bw_total::.cpu.data          14861475                       # Total bandwidth to/from this memory (bytes/s)
system.mem_ctrl.bw_total::total              16207899                       # Total bandwidth to/from this memory (bytes/s)
system.mem_ctrl.avgPriority_.cpu.inst::samples       795.00                       # Average QoS priority value for accepted requests
system.mem_ctrl.avgPriority_.cpu.data::samples      8775.00                       # Average QoS priority value for accepted requests
system.mem_ctrl.priorityMinLatency       0.000000018750                       # per QoS priority minimum request to response latency (s)
system.mem_ctrl.priorityMaxLatency       0.000001099750                       # per QoS priority maximum request to response latency (s)
system.mem_ctrl.numReadWriteTurnArounds             0                       # Number of turnarounds from READ to WRITE
system.mem_ctrl.numWriteReadTurnArounds             0                       # Number of turnarounds from WRITE to READ
system.mem_ctrl.numStayReadState                24094                       # Number of times bus staying in READ state
system.mem_ctrl.numStayWriteState                   0                       # Number of times bus staying in WRITE state
system.mem_ctrl.readReqs                         9570                       # Number of read requests accepted
system.mem_ctrl.writeReqs                           0                       # Number of write requests accepted
system.mem_ctrl.readBursts                       9570                       # Number of DRAM read bursts, including those serviced by the write queue
system.mem_ctrl.writeBursts                         0                       # Number of DRAM write bursts, including those merged in the write queue
system.mem_ctrl.bytesReadDRAM                  612480                       # Total number of bytes read from DRAM
system.mem_ctrl.bytesReadWrQ                        0                       # Total number of bytes read from write queue
system.mem_ctrl.bytesWritten                        0                       # Total number of bytes written to DRAM
system.mem_ctrl.bytesReadSys                   612480                       # Total read bytes from the system interface side
system.mem_ctrl.bytesWrittenSys                     0                       # Total written bytes from the system interface side
system.mem_ctrl.servicedByWrQ                       0                       # Number of DRAM read bursts serviced by the write queue
system.mem_ctrl.mergedWrBursts                      0                       # Number of DRAM write bursts merged with an existing one
system.mem_ctrl.neitherReadNorWriteReqs             0                       # Number of requests that are neither read nor write
system.mem_ctrl.perBankRdBursts::0                784                       # Per bank write bursts
system.mem_ctrl.perBankRdBursts::1                623                       # Per bank write bursts
system.mem_ctrl.perBankRdBursts::2                552                       # Per bank write bursts
system.mem_ctrl.perBankRdBursts::3                527                       # Per bank write bursts
system.mem_ctrl.perBankRdBursts::4                542                       # Per bank write bursts
system.mem_ctrl.perBankRdBursts::5                526                       # Per bank write bursts
system.mem_ctrl.perBankRdBursts::6                589                       # Per bank write bursts
system.mem_ctrl.perBankRdBursts::7                616                       # Per bank write bursts
system.mem_ctrl.perBankRdBursts::8                541                       # Per bank write bursts
system.mem_ctrl.perBankRdBursts::9                565                       # Per bank write bursts
system.mem_ctrl.perBankRdBursts::10               660                       # Per bank write bursts
system.mem_ctrl.perBankRdBursts::11               616                       # Per bank write bursts
system.mem_ctrl.perBankRdBursts::12               571                       # Per bank write bursts
system.mem_ctrl.perBankRdBursts::13               580                       # Per bank write bursts
system.mem_ctrl.perBankRdBursts::14               625                       # Per bank write bursts
system.mem_ctrl.perBankRdBursts::15               653                       # Per bank write bursts
system.mem_ctrl.perBankWrBursts::0                  0                       # Per bank write bursts
system.mem_ctrl.perBankWrBursts::1                  0                       # Per bank write bursts
system.mem_ctrl.perBankWrBursts::2                  0                       # Per bank write bursts
system.mem_ctrl.perBankWrBursts::3                  0                       # Per bank write bursts
system.mem_ctrl.perBankWrBursts::4                  0                       # Per bank write bursts
system.mem_ctrl.perBankWrBursts::5                  0                       # Per bank write bursts
system.mem_ctrl.perBankWrBursts::6                  0                       # Per bank write bursts
system.mem_ctrl.perBankWrBursts::7                  0                       # Per bank write bursts
system.mem_ctrl.perBankWrBursts::8                  0                       # Per bank write bursts
system.mem_ctrl.perBankWrBursts::9                  0                       # Per bank write bursts
system.mem_ctrl.perBankWrBursts::10                 0                       # Per bank write bursts
system.mem_ctrl.perBankWrBursts::11                 0                       # Per bank write bursts
system.mem_ctrl.perBankWrBursts::12                 0                       # Per bank write bursts
system.mem_ctrl.perBankWrBursts::13                 0                       # Per bank write bursts
system.mem_ctrl.perBankWrBursts::14                 0                       # Per bank write bursts
system.mem_ctrl.perBankWrBursts::15                 0                       # Per bank write bursts
system.mem_ctrl.numRdRetry                          0                       # Number of times read queue was full causing retry
system.mem_ctrl.numWrRetry                          0                       # Number of times write queue was full causing retry
system.mem_ctrl.totGap                    37788897500                       # Total gap between requests
system.mem_ctrl.readPktSize::0                      0                       # Read request sizes (log2)
system.mem_ctrl.readPktSize::1                      0                       # Read request sizes (log2)
system.mem_ctrl.readPktSize::2                      0                       # Read request sizes (log2)
system.mem_ctrl.readPktSize::3                      0                       # Read request sizes (log2)
system.mem_ctrl.readPktSize::4                      0                       # Read request sizes (log2)
system.mem_ctrl.readPktSize::5                      0                       # Read request sizes (log2)
system.mem_ctrl.readPktSize::6                   9570                       # Read request sizes (log2)
system.mem_ctrl.writePktSize::0                     0                       # Write request sizes (log2)
system.mem_ctrl.writePktSize::1                     0                       # Write request sizes (log2)
system.mem_ctrl.writePktSize::2                     0                       # Write request sizes (log2)
system.mem_ctrl.writePktSize::3                     0                       # Write request sizes (log2)
system.mem_ctrl.writePktSize::4                     0                       # Write request sizes (log2)
system.mem_ctrl.writePktSize::5                     0                       # Write request sizes (log2)
system.mem_ctrl.writePktSize::6                     0                       # Write request sizes (log2)
system.mem_ctrl.rdQLenPdf::0                     9167                       # What read queue length does an incoming req see
system.mem_ctrl.rdQLenPdf::1                      301                       # What read queue length does an incoming req see
system.mem_ctrl.rdQLenPdf::2                       78                       # What read queue length does an incoming req see
system.mem_ctrl.rdQLenPdf::3                       22                       # What read queue length does an incoming req see
system.mem_ctrl.rdQLenPdf::4                        2                       # What read queue length does an incoming req see
system.mem_ctrl.rdQLenPdf::5                        0                       # What read queue length does an incoming req see
system.mem_ctrl.rdQLenPdf::6                        0                       # What read queue length does an incoming req see
system.mem_ctrl.rdQLenPdf::7                        0                       # What read queue length does an incoming req see
system.mem_ctrl.rdQLenPdf::8                        0                       # What read queue length does an incoming req see
system.mem_ctrl.rdQLenPdf::9                        0                       # What read queue length does an incoming req see
system.mem_ctrl.rdQLenPdf::10                       0                       # What read queue length does an incoming req see
system.mem_ctrl.rdQLenPdf::11                       0                       # What read queue length does an incoming req see
system.mem_ctrl.rdQLenPdf::12                       0                       # What read queue length does an incoming req see
system.mem_ctrl.rdQLenPdf::13                       0                       # What read queue length does an incoming req see
system.mem_ctrl.rdQLenPdf::14                       0                       # What read queue length does an incoming req see
system.mem_ctrl.rdQLenPdf::15                       0                       # What read queue length does an incoming req see
system.mem_ctrl.rdQLenPdf::16                       0                       # What read queue length does an incoming req see
system.mem_ctrl.rdQLenPdf::17                       0                       # What read queue length does an incoming req see
system.mem_ctrl.rdQLenPdf::18                       0                       # What read queue length does an incoming req see
system.mem_ctrl.rdQLenPdf::19                       0                       # What read queue length does an incoming req see
system.mem_ctrl.rdQLenPdf::20                       0                       # What read queue length does an incoming req see
system.mem_ctrl.rdQLenPdf::21                       0                       # What read queue length does an incoming req see
system.mem_ctrl.rdQLenPdf::22                       0                       # What read queue length does an incoming req see
system.mem_ctrl.rdQLenPdf::23                       0                       # What read queue length does an incoming req see
system.mem_ctrl.rdQLenPdf::24                       0                       # What read queue length does an incoming req see
system.mem_ctrl.rdQLenPdf::25                       0                       # What read queue length does an incoming req see
system.mem_ctrl.rdQLenPdf::26                       0                       # What read queue length does an incoming req see
system.mem_ctrl.rdQLenPdf::27                       0                       # What read queue length does an incoming req see
system.mem_ctrl.rdQLenPdf::28                       0                       # What read queue length does an incoming req see
system.mem_ctrl.rdQLenPdf::29                       0                       # What read queue length does an incoming req see
system.mem_ctrl.rdQLenPdf::30                       0                       # What read queue length does an incoming req see
system.mem_ctrl.rdQLenPdf::31                       0                       # What read queue length does an incoming req see
system.mem_ctrl.wrQLenPdf::0                        0                       # What write queue length does an incoming req see
system.mem_ctrl.wrQLenPdf::1                        0                       # What write queue length does an incoming req see
system.mem_ctrl.wrQLenPdf::2                        0                       # What write queue length does an incoming req see
system.mem_ctrl.wrQLenPdf::3                        0                       # What write queue length does an incoming req see
system.mem_ctrl.wrQLenPdf::4                        0                       # What write queue length does an incoming req see
system.mem_ctrl.wrQLenPdf::5                        0                       # What write queue length does an incoming req see
system.mem_ctrl.wrQLenPdf::6                        0                       # What write queue length does an incoming req see
system.mem_ctrl.wrQLenPdf::7                        0                       # What write queue length does an incoming req see
system.mem_ctrl.wrQLenPdf::8                        0                       # What write queue length does an incoming req see
system.mem_ctrl.wrQLenPdf::9                        0                       # What write queue length does an incoming req see
system.mem_ctrl.wrQLenPdf::10                       0                       # What write queue length does an incoming req see
system.mem_ctrl.wrQLenPdf::11                       0                       # What write queue length does an incoming req see
system.mem_ctrl.wrQLenPdf::12                       0                       # What write queue length does an incoming req see
system.mem_ctrl.wrQLenPdf::13                       0                       # What write queue length does an incoming req see
system.mem_ctrl.wrQLenPdf::14                       0                       # What write queue length does an incoming req see
system.mem_ctrl.wrQLenPdf::15                       0                       # What write queue length does an incoming req see
system.mem_ctrl.wrQLenPdf::16                       0                       # What write queue length does an incoming req see
system.mem_ctrl.wrQLenPdf::17                       0                       # What write queue length does an incoming req see
system.mem_ctrl.wrQLenPdf::18                       0                       # What write queue length does an incoming req see
system.mem_ctrl.wrQLenPdf::19                       0                       # What write queue length does an incoming req see
system.mem_ctrl.wrQLenPdf::20                       0                       # What write queue length does an incoming req see
system.mem_ctrl.wrQLenPdf::21                       0                       # What write queue length does an incoming req see
system.mem_ctrl.wrQLenPdf::22                       0                       # What write queue length does an incoming req see
system.mem_ctrl.wrQLenPdf::23                       0                       # What write queue length does an incoming req see
system.mem_ctrl.wrQLenPdf::24                       0                       # What write queue length does an incoming req see
system.mem_ctrl.wrQLenPdf::25                       0                       # What write queue length does an incoming req see
system.mem_ctrl.wrQLenPdf::26                       0                       # What write queue length does an incoming req see
system.mem_ctrl.wrQLenPdf::27                       0                       # What write queue length does an incoming req see
system.mem_ctrl.wrQLenPdf::28                       0                       # What write queue length does an incoming req see
system.mem_ctrl.wrQLenPdf::29                       0                       # What write queue length does an incoming req see
system.mem_ctrl.wrQLenPdf::30                       0                       # What write queue length does an incoming req see
system.mem_ctrl.wrQLenPdf::31                       0                       # What write queue length does an incoming req see
system.mem_ctrl.wrQLenPdf::32                       0                       # What write queue length does an incoming req see
system.mem_ctrl.wrQLenPdf::33                       0                       # What write queue length does an incoming req see
system.mem_ctrl.wrQLenPdf::34                       0                       # What write queue length does an incoming req see
system.mem_ctrl.wrQLenPdf::35                       0                       # What write queue length does an incoming req see
system.mem_ctrl.wrQLenPdf::36                       0                       # What write queue length does an incoming req see
system.mem_ctrl.wrQLenPdf::37                       0                       # What write queue length does an incoming req see
system.mem_ctrl.wrQLenPdf::38                       0                       # What write queue length does an incoming req see
system.mem_ctrl.wrQLenPdf::39                       0                       # What write queue length does an incoming req see
system.mem_ctrl.wrQLenPdf::40                       0                       # What write queue length does an incoming req see
system.mem_ctrl.wrQLenPdf::41                       0                       # What write queue length does an incoming req see
system.mem_ctrl.wrQLenPdf::42                       0                       # What write queue length does an incoming req see
system.mem_ctrl.wrQLenPdf::43                       0                       # What write queue length does an incoming req see
system.mem_ctrl.wrQLenPdf::44                       0                       # What write queue length does an incoming req see
system.mem_ctrl.wrQLenPdf::45                       0                       # What write queue length does an incoming req see
system.mem_ctrl.wrQLenPdf::46                       0                       # What write queue length does an incoming req see
system.mem_ctrl.wrQLenPdf::47                       0                       # What write queue length does an incoming req see
system.mem_ctrl.wrQLenPdf::48                       0                       # What write queue length does an incoming req see
system.mem_ctrl.wrQLenPdf::49                       0                       # What write queue length does an incoming req see
system.mem_ctrl.wrQLenPdf::50                       0                       # What write queue length does an incoming req see
system.mem_ctrl.wrQLenPdf::51                       0                       # What write queue length does an incoming req see
system.mem_ctrl.wrQLenPdf::52                       0                       # What write queue length does an incoming req see
system.mem_ctrl.wrQLenPdf::53                       0                       # What write queue length does an incoming req see
system.mem_ctrl.wrQLenPdf::54                       0                       # What write queue length does an incoming req see
system.mem_ctrl.wrQLenPdf::55                       0                       # What write queue length does an incoming req see
system.mem_ctrl.wrQLenPdf::56                       0                       # What write queue length does an incoming req see
system.mem_ctrl.wrQLenPdf::57                       0                       # What write queue length does an incoming req see
system.mem_ctrl.wrQLenPdf::58                       0                       # What write queue length does an incoming req see
system.mem_ctrl.wrQLenPdf::59                       0                       # What write queue length does an incoming req see
system.mem_ctrl.wrQLenPdf::60                       0                       # What write queue length does an incoming req see
system.mem_ctrl.wrQLenPdf::61                       0                       # What write queue length does an incoming req see
system.mem_ctrl.wrQLenPdf::62                       0                       # What write queue length does an incoming req see
system.mem_ctrl.wrQLenPdf::63                       0                       # What write queue length does an incoming req see
system.mem_ctrl.bytesPerActivate::samples         5272                       # Bytes accessed per row activation
system.mem_ctrl.bytesPerActivate::mean     115.775417                       # Bytes accessed per row activation
system.mem_ctrl.bytesPerActivate::gmean    102.004804                       # Bytes accessed per row activation
system.mem_ctrl.bytesPerActivate::stdev     88.997356                       # Bytes accessed per row activation
system.mem_ctrl.bytesPerActivate::0-127          2060     39.07%     39.07% # Bytes accessed per row activation
system.mem_ctrl.bytesPerActivate::128-255         3048     57.81%     96.89% # Bytes accessed per row activation
system.mem_ctrl.bytesPerActivate::256-383           30      0.57%     97.46% # Bytes accessed per row activation
system.mem_ctrl.bytesPerActivate::384-511           45      0.85%     98.31% # Bytes accessed per row activation
system.mem_ctrl.bytesPerActivate::512-639           54      1.02%     99.34% # Bytes accessed per row activation
system.mem_ctrl.bytesPerActivate::640-767            9      0.17%     99.51% # Bytes accessed per row activation
system.mem_ctrl.bytesPerActivate::768-895            5      0.09%     99.60% # Bytes accessed per row activation
system.mem_ctrl.bytesPerActivate::896-1023            4      0.08%     99.68% # Bytes accessed per row activation
system.mem_ctrl.bytesPerActivate::1024-1151           17      0.32%    100.00% # Bytes accessed per row activation
system.mem_ctrl.bytesPerActivate::total          5272                       # Bytes accessed per row activation
system.mem_ctrl.masterReadBytes::.cpu.inst        50880                       # Per-master bytes read from memory
system.mem_ctrl.masterReadBytes::.cpu.data       561600                       # Per-master bytes read from memory
system.mem_ctrl.masterReadRate::.cpu.inst 1346424.221568395616                       # Per-master bytes read from memory rate (Bytes/sec)
system.mem_ctrl.masterReadRate::.cpu.data 14861474.898443611339                       # Per-master bytes read from memory rate (Bytes/sec)
system.mem_ctrl.masterReadAccesses::.cpu.inst          795                       # Per-master read serviced memory accesses
system.mem_ctrl.masterReadAccesses::.cpu.data         8775                       # Per-master read serviced memory accesses
system.mem_ctrl.masterReadTotalLat::.cpu.inst     31439500                       # Per-master read total memory access latency
system.mem_ctrl.masterReadTotalLat::.cpu.data    444359500                       # Per-master read total memory access latency
system.mem_ctrl.masterReadAvgLat::.cpu.inst     39546.54                       # Per-master read average memory access latency
system.mem_ctrl.masterReadAvgLat::.cpu.data     50639.26                       # Per-master read average memory access latency
system.mem_ctrl.totQLat                     296361500                       # Total ticks spent queuing
system.mem_ctrl.totMemAccLat                475799000                       # Total ticks spent from burst creation until serviced by the DRAM
system.mem_ctrl.totBusLat                    47850000                       # Total ticks spent in databus transfers
system.mem_ctrl.avgQLat                      30967.76                       # Average queueing delay per DRAM burst
system.mem_ctrl.avgBusLat                     5000.00                       # Average bus latency per DRAM burst
system.mem_ctrl.avgMemAccLat                 49717.76                       # Average memory access latency per DRAM burst
system.mem_ctrl.avgRdBW                         16.21                       # Average DRAM read bandwidth in MiByte/s
system.mem_ctrl.avgWrBW                          0.00                       # Average achieved write bandwidth in MiByte/s
system.mem_ctrl.avgRdBWSys                      16.21                       # Average system read bandwidth in MiByte/s
system.mem_ctrl.avgWrBWSys                       0.00                       # Average system write bandwidth in MiByte/s
system.mem_ctrl.peakBW                       12800.00                       # Theoretical peak bandwidth in MiByte/s
system.mem_ctrl.busUtil                          0.13                       # Data bus utilization in percentage
system.mem_ctrl.busUtilRead                      0.13                       # Data bus utilization in percentage for reads
system.mem_ctrl.busUtilWrite                     0.00                       # Data bus utilization in percentage for writes
system.mem_ctrl.avgRdQLen                        1.00                       # Average read queue length when enqueuing
system.mem_ctrl.avgWrQLen                        0.00                       # Average write queue length when enqueuing
system.mem_ctrl.readRowHits                      4288                       # Number of row buffer hits during reads
system.mem_ctrl.writeRowHits                        0                       # Number of row buffer hits during writes
system.mem_ctrl.readRowHitRate                  44.81                       # Row buffer hit rate for reads
system.mem_ctrl.writeRowHitRate                   nan                       # Row buffer hit rate for writes
system.mem_ctrl.avgGap                     3948683.12                       # Average gap between requests
system.mem_ctrl.pageHitRate                     44.81                       # Row buffer hit rate, read and write combined
system.mem_ctrl_0.actEnergy                  18828180                       # Energy for activate commands per rank (pJ)
system.mem_ctrl_0.preEnergy                   9984645                       # Energy for precharge commands per rank (pJ)
system.mem_ctrl_0.readEnergy                 33979260                       # Energy for read commands per rank (pJ)
system.mem_ctrl_0.writeEnergy                       0                       # Energy for write commands per rank (pJ)
system.mem_ctrl_0.refreshEnergy          1516931520.000000                       # Energy for refresh commands per rank (pJ)
system.mem_ctrl_0.actBackEnergy             347180160                       # Energy for active background per rank (pJ)
system.mem_ctrl_0.preBackEnergy              34602720                       # Energy for precharge background per rank (pJ)
system.mem_ctrl_0.actPowerDownEnergy       6091766700                       # Energy for active power-down per rank (pJ)
system.mem_ctrl_0.prePowerDownEnergy       1926861600                       # Energy for precharge power-down per rank (pJ)
system.mem_ctrl_0.selfRefreshEnergy        4471640640                       # Energy for self refresh per rank (pJ)
system.mem_ctrl_0.totalEnergy             14452109895                       # Total energy per rank (pJ)
system.mem_ctrl_0.averagePower             382.442430                       # Core power per rank (mW)
system.mem_ctrl_0.totalIdleTime           36936576250                       # Total Idle time Per DRAM Rank
system.mem_ctrl_0.memoryStateTime::IDLE      23190500                       # Time in different power states
system.mem_ctrl_0.memoryStateTime::REF      641680000                       # Time in different power states
system.mem_ctrl_0.memoryStateTime::SREF   18559761500                       # Time in different power states
system.mem_ctrl_0.memoryStateTime::PRE_PDN   5017700500                       # Time in different power states
system.mem_ctrl_0.memoryStateTime::ACT      187494000                       # Time in different power states
system.mem_ctrl_0.memoryStateTime::ACT_PDN  13359155000                       # Time in different power states
system.mem_ctrl_1.actEnergy                  18885300                       # Energy for activate commands per rank (pJ)
system.mem_ctrl_1.preEnergy                  10022595                       # Energy for precharge commands per rank (pJ)
system.mem_ctrl_1.readEnergy                 34350540                       # Energy for read commands per rank (pJ)
system.mem_ctrl_1.writeEnergy                       0                       # Energy for write commands per rank (pJ)
system.mem_ctrl_1.refreshEnergy          1547048880.000000                       # Energy for refresh commands per rank (pJ)
system.mem_ctrl_1.actBackEnergy             352204710                       # Energy for active background per rank (pJ)
system.mem_ctrl_1.preBackEnergy              36362880                       # Energy for precharge background per rank (pJ)
system.mem_ctrl_1.actPowerDownEnergy       6079505430                       # Energy for active power-down per rank (pJ)
system.mem_ctrl_1.prePowerDownEnergy       2079421440                       # Energy for precharge power-down per rank (pJ)
system.mem_ctrl_1.selfRefreshEnergy        4392805440                       # Energy for self refresh per rank (pJ)
system.mem_ctrl_1.totalEnergy             14552437785                       # Total energy per rank (pJ)
system.mem_ctrl_1.averagePower             385.097380                       # Core power per rank (mW)
system.mem_ctrl_1.totalIdleTime           36917031750                       # Total Idle time Per DRAM Rank
system.mem_ctrl_1.memoryStateTime::IDLE      30316000                       # Time in different power states
system.mem_ctrl_1.memoryStateTime::REF      654420000                       # Time in different power states
system.mem_ctrl_1.memoryStateTime::SREF   18170439250                       # Time in different power states
system.mem_ctrl_1.memoryStateTime::PRE_PDN   5414929000                       # Time in different power states
system.mem_ctrl_1.memoryStateTime::ACT      187009000                       # Time in different power states
system.mem_ctrl_1.memoryStateTime::ACT_PDN  13331868250                       # Time in different power states
system.pwrStateResidencyTicks::UNDEFINED  37788981500                       # Cumulative time (in ticks) in various power states
system.cpu.branchPred.lookups                12596168                       # Number of BP lookups
system.cpu.branchPred.condPredicted          12596168                       # Number of conditional branches predicted
system.cpu.branchPred.condIncorrect            264382                       # Number of conditional branches incorrect
system.cpu.branchPred.BTBLookups             11384169                       # Number of BTB lookups
system.cpu.branchPred.BTBHits                       0                       # Number of BTB hits
system.cpu.branchPred.BTBCorrect                    0                       # Number of correct BTB predictions (this stat may not work properly.
system.cpu.branchPred.BTBHitPct              0.000000                       # BTB Hit Percentage
system.cpu.branchPred.usedRAS                  373578                       # Number of times the RAS was used to get a target.
system.cpu.branchPred.RASInCorrect                254                       # Number of incorrect RAS predictions.
system.cpu.branchPred.indirectLookups        11384169                       # Number of indirect predictor lookups.
system.cpu.branchPred.indirectHits            5617300                       # Number of indirect target hits.
system.cpu.branchPred.indirectMisses          5766869                       # Number of indirect misses.
system.cpu.branchPredindirectMispredicted       263457                       # Number of mispredicted indirect branches.
system.cpu.dtb.walker.pwrStateResidencyTicks::UNDEFINED  37788981500                       # Cumulative time (in ticks) in various power states
system.cpu.dtb.rdAccesses                    19827906                       # TLB accesses on read requests
system.cpu.dtb.wrAccesses                     8741355                       # TLB accesses on write requests
system.cpu.dtb.rdMisses                           451                       # TLB misses on read requests
system.cpu.dtb.wrMisses                           308                       # TLB misses on write requests
system.cpu.apic_clk_domain.clock                 8000                       # Clock period in ticks
system.cpu.interrupts.pwrStateResidencyTicks::UNDEFINED  37788981500                       # Cumulative time (in ticks) in various power states
system.cpu.itb.walker.pwrStateResidencyTicks::UNDEFINED  37788981500                       # Cumulative time (in ticks) in various power states
system.cpu.itb.rdAccesses                           0                       # TLB accesses on read requests
system.cpu.itb.wrAccesses                     9322807                       # TLB accesses on write requests
system.cpu.itb.rdMisses                             0                       # TLB misses on read requests
system.cpu.itb.wrMisses                           170                       # TLB misses on write requests
system.cpu.workload.numSyscalls                    36                       # Number of system calls
system.cpu.pwrStateResidencyTicks::ON     37788981500                       # Cumulative time (in ticks) in various power states
system.cpu.numCycles                         75577964                       # number of cpu cycles simulated
system.cpu.numWorkItemsStarted                      0                       # number of work items this cpu started
system.cpu.numWorkItemsCompleted                    0                       # number of work items this cpu completed
system.cpu.fetch.icacheStallCycles             310630                       # Number of cycles fetch is stalled on an Icache miss
system.cpu.fetch.Insts                       72568715                       # Number of instructions fetch has processed
system.cpu.fetch.Branches                    12596168                       # Number of branches that fetch encountered
system.cpu.fetch.predictedBranches            5990878                       # Number of branches that fetch has predicted taken
system.cpu.fetch.Cycles                      74963261                       # Number of cycles fetch has run and was not squashing or blocked
system.cpu.fetch.SquashCycles                  529734                       # Number of cycles fetch has spent squashing
system.cpu.fetch.MiscStallCycles                   72                       # Number of cycles fetch has spent waiting on interrupts, or bad addresses, or out of MSHRs
system.cpu.fetch.PendingTrapStallCycles          1352                       # Number of stall cycles due to pending traps
system.cpu.fetch.PendingQuiesceStallCycles           13                       # Number of stall cycles due to pending quiesce instructions
system.cpu.fetch.IcacheWaitRetryStallCycles            2                       # Number of stall cycles due to full MSHR
system.cpu.fetch.CacheLines                   9322695                       # Number of cache lines fetched
system.cpu.fetch.IcacheSquashes                   548                       # Number of outstanding Icache misses that were squashed
system.cpu.fetch.rateDist::samples           75540197                       # Number of instructions fetched each cycle (Total)
system.cpu.fetch.rateDist::mean              1.695331                       # Number of instructions fetched each cycle (Total)
system.cpu.fetch.rateDist::stdev             1.865001                       # Number of instructions fetched each cycle (Total)
system.cpu.fetch.rateDist::underflows               0      0.00%      0.00% # Number of instructions fetched each cycle (Total)
system.cpu.fetch.rateDist::0                 38835589     51.41%     51.41% # Number of instructions fetched each cycle (Total)
system.cpu.fetch.rateDist::1                  2947132      3.90%     55.31% # Number of instructions fetched each cycle (Total)
system.cpu.fetch.rateDist::2                  3086406      4.09%     59.40% # Number of instructions fetched each cycle (Total)
system.cpu.fetch.rateDist::3                  3738617      4.95%     64.35% # Number of instructions fetched each cycle (Total)
system.cpu.fetch.rateDist::4                 26932453     35.65%    100.00% # Number of instructions fetched each cycle (Total)
system.cpu.fetch.rateDist::overflows                0      0.00%    100.00% # Number of instructions fetched each cycle (Total)
system.cpu.fetch.rateDist::min_value                0                       # Number of instructions fetched each cycle (Total)
system.cpu.fetch.rateDist::max_value                4                       # Number of instructions fetched each cycle (Total)
system.cpu.fetch.rateDist::total             75540197                       # Number of instructions fetched each cycle (Total)
system.cpu.fetch.branchRate                  0.166665                       # Number of branch fetches per cycle
system.cpu.fetch.rate                        0.960184                       # Number of inst fetches per cycle
system.cpu.decode.IdleCycles                  8643158                       # Number of cycles decode is idle
system.cpu.decode.BlockedCycles              36068671                       # Number of cycles decode is blocked
system.cpu.decode.RunCycles                  18880180                       # Number of cycles decode is running
system.cpu.decode.UnblockCycles              11683321                       # Number of cycles decode is unblocking
system.cpu.decode.SquashCycles                 264867                       # Number of cycles decode is squashing
system.cpu.decode.DecodedInsts              118245399                       # Number of instructions handled by decode
system.cpu.decode.SquashedInsts               1525003                       # Number of squashed instructions handled by decode
system.cpu.rename.SquashCycles                 264867                       # Number of cycles rename is squashing
system.cpu.rename.IdleCycles                 15361370                       # Number of cycles rename is idle
system.cpu.rename.BlockCycles                17091547                       # Number of cycles rename is blocking
system.cpu.rename.serializeStallCycles           2130                       # count of cycles rename stalled for serializing inst
system.cpu.rename.RunCycles                  23248823                       # Number of cycles rename is running
system.cpu.rename.UnblockCycles              19571460                       # Number of cycles rename is unblocking
system.cpu.rename.RenamedInsts              116932342                       # Number of instructions processed by rename
system.cpu.rename.SquashedInsts                379911                       # Number of squashed instructions processed by rename
system.cpu.rename.ROBFullEvents              13895048                       # Number of times rename has blocked due to ROB full
system.cpu.rename.IQFullEvents                1035845                       # Number of times rename has blocked due to IQ full
system.cpu.rename.SQFullEvents                2732666                       # Number of times rename has blocked due to SQ full
system.cpu.rename.RenamedOperands           138679894                       # Number of destination operands rename has renamed
system.cpu.rename.RenameLookups             286950980                       # Number of register rename lookups that rename has made
system.cpu.rename.int_rename_lookups        180014834                       # Number of integer rename lookups
system.cpu.rename.fp_rename_lookups            266417                       # Number of floating rename lookups
system.cpu.rename.CommittedMaps             130921918                       # Number of HB maps that are committed
system.cpu.rename.UndoneMaps                  7757976                       # Number of HB maps that are undone due to squashing
system.cpu.rename.serializingInsts                 56                       # count of serializing insts renamed
system.cpu.rename.tempSerializingInsts             54                       # count of temporary serializing insts renamed
system.cpu.rename.skidInsts                  34959838                       # count of insts added to the skid buffer
system.cpu.memDep0.insertedLoads             20113782                       # Number of loads inserted to the mem dependence unit.
system.cpu.memDep0.insertedStores             8941819                       # Number of stores inserted to the mem dependence unit.
system.cpu.memDep0.conflictingLoads           5652600                       # Number of conflicting loads.
system.cpu.memDep0.conflictingStores          1406263                       # Number of conflicting stores.
system.cpu.iq.iqInstsAdded                  115685410                       # Number of instructions added to the IQ (excludes non-spec)
system.cpu.iq.iqNonSpecInstsAdded                 243                       # Number of non-speculative instructions added to the IQ
system.cpu.iq.iqInstsIssued                 114411433                       # Number of instructions issued
system.cpu.iq.iqSquashedInstsIssued            111282                       # Number of squashed instructions issued
system.cpu.iq.iqSquashedInstsExamined         5645967                       # Number of squashed instructions iterated over during squash; mainly for profiling
system.cpu.iq.iqSquashedOperandsExamined      5453813                       # Number of squashed operands that are examined and possibly removed from graph
system.cpu.iq.iqSquashedNonSpecRemoved            207                       # Number of squashed non-spec instructions that were removed
system.cpu.iq.issued_per_cycle::samples      75540197                       # Number of insts issued each cycle
system.cpu.iq.issued_per_cycle::mean         1.514577                       # Number of insts issued each cycle
system.cpu.iq.issued_per_cycle::stdev        1.022465                       # Number of insts issued each cycle
system.cpu.iq.issued_per_cycle::underflows            0      0.00%      0.00% # Number of insts issued each cycle
system.cpu.iq.issued_per_cycle::0            16177067     21.42%     21.42% # Number of insts issued each cycle
system.cpu.iq.issued_per_cycle::1            18016125     23.85%     45.26% # Number of insts issued each cycle
system.cpu.iq.issued_per_cycle::2            27819030     36.83%     82.09% # Number of insts issued each cycle
system.cpu.iq.issued_per_cycle::3            13354652     17.68%     99.77% # Number of insts issued each cycle
system.cpu.iq.issued_per_cycle::4              173323      0.23%    100.00% # Number of insts issued each cycle
system.cpu.iq.issued_per_cycle::overflows            0      0.00%    100.00% # Number of insts issued each cycle
system.cpu.iq.issued_per_cycle::min_value            0                       # Number of insts issued each cycle
system.cpu.iq.issued_per_cycle::max_value            4                       # Number of insts issued each cycle
system.cpu.iq.issued_per_cycle::total        75540197                       # Number of insts issued each cycle
system.cpu.iq.fu_full::No_OpClass                   0      0.00%      0.00% # attempts to use FU when none available
system.cpu.iq.fu_full::IntAlu                22523632     67.68%     67.68% # attempts to use FU when none available
system.cpu.iq.fu_full::IntMult                      0      0.00%     67.68% # attempts to use FU when none available
system.cpu.iq.fu_full::IntDiv                       0      0.00%     67.68% # attempts to use FU when none available
system.cpu.iq.fu_full::FloatAdd                     0      0.00%     67.68% # attempts to use FU when none available
system.cpu.iq.fu_full::FloatCmp                     0      0.00%     67.68% # attempts to use FU when none available
system.cpu.iq.fu_full::FloatCvt                     0      0.00%     67.68% # attempts to use FU when none available
system.cpu.iq.fu_full::FloatMult                    0      0.00%     67.68% # attempts to use FU when none available
system.cpu.iq.fu_full::FloatMultAcc                 0      0.00%     67.68% # attempts to use FU when none available
system.cpu.iq.fu_full::FloatDiv                     0      0.00%     67.68% # attempts to use FU when none available
system.cpu.iq.fu_full::FloatMisc                    0      0.00%     67.68% # attempts to use FU when none available
system.cpu.iq.fu_full::FloatSqrt                    0      0.00%     67.68% # attempts to use FU when none available
system.cpu.iq.fu_full::SimdAdd                    265      0.00%     67.68% # attempts to use FU when none available
system.cpu.iq.fu_full::SimdAddAcc                   0      0.00%     67.68% # attempts to use FU when none available
system.cpu.iq.fu_full::SimdAlu                     70      0.00%     67.68% # attempts to use FU when none available
system.cpu.iq.fu_full::SimdCmp                      0      0.00%     67.68% # attempts to use FU when none available
system.cpu.iq.fu_full::SimdCvt                     64      0.00%     67.68% # attempts to use FU when none available
system.cpu.iq.fu_full::SimdMisc                   147      0.00%     67.68% # attempts to use FU when none available
system.cpu.iq.fu_full::SimdMult                     0      0.00%     67.68% # attempts to use FU when none available
system.cpu.iq.fu_full::SimdMultAcc                  0      0.00%     67.68% # attempts to use FU when none available
system.cpu.iq.fu_full::SimdShift                  124      0.00%     67.68% # attempts to use FU when none available
system.cpu.iq.fu_full::SimdShiftAcc                 0      0.00%     67.68% # attempts to use FU when none available
system.cpu.iq.fu_full::SimdSqrt                     0      0.00%     67.68% # attempts to use FU when none available
system.cpu.iq.fu_full::SimdFloatAdd                 0      0.00%     67.68% # attempts to use FU when none available
system.cpu.iq.fu_full::SimdFloatAlu                 0      0.00%     67.68% # attempts to use FU when none available
system.cpu.iq.fu_full::SimdFloatCmp                 0      0.00%     67.68% # attempts to use FU when none available
system.cpu.iq.fu_full::SimdFloatCvt                 0      0.00%     67.68% # attempts to use FU when none available
system.cpu.iq.fu_full::SimdFloatDiv                 0      0.00%     67.68% # attempts to use FU when none available
system.cpu.iq.fu_full::SimdFloatMisc                0      0.00%     67.68% # attempts to use FU when none available
system.cpu.iq.fu_full::SimdFloatMult                0      0.00%     67.68% # attempts to use FU when none available
system.cpu.iq.fu_full::SimdFloatMultAcc             0      0.00%     67.68% # attempts to use FU when none available
system.cpu.iq.fu_full::SimdFloatSqrt                0      0.00%     67.68% # attempts to use FU when none available
system.cpu.iq.fu_full::SimdAes                      0      0.00%     67.68% # attempts to use FU when none available
system.cpu.iq.fu_full::SimdAesMix                   0      0.00%     67.68% # attempts to use FU when none available
system.cpu.iq.fu_full::SimdSha1Hash                 0      0.00%     67.68% # attempts to use FU when none available
system.cpu.iq.fu_full::SimdSha1Hash2                0      0.00%     67.68% # attempts to use FU when none available
system.cpu.iq.fu_full::SimdSha256Hash               0      0.00%     67.68% # attempts to use FU when none available
system.cpu.iq.fu_full::SimdSha256Hash2              0      0.00%     67.68% # attempts to use FU when none available
system.cpu.iq.fu_full::SimdShaSigma2                0      0.00%     67.68% # attempts to use FU when none available
system.cpu.iq.fu_full::SimdShaSigma3                0      0.00%     67.68% # attempts to use FU when none available
system.cpu.iq.fu_full::MemRead                8481433     25.49%     93.17% # attempts to use FU when none available
system.cpu.iq.fu_full::MemWrite               2273283      6.83%    100.00% # attempts to use FU when none available
system.cpu.iq.fu_full::FloatMemRead                 0      0.00%    100.00% # attempts to use FU when none available
system.cpu.iq.fu_full::FloatMemWrite                0      0.00%    100.00% # attempts to use FU when none available
system.cpu.iq.fu_full::IprAccess                    0      0.00%    100.00% # attempts to use FU when none available
system.cpu.iq.fu_full::InstPrefetch                 0      0.00%    100.00% # attempts to use FU when none available
system.cpu.iq.FU_type_0::No_OpClass            183118      0.16%      0.16% # Type of FU issued
system.cpu.iq.FU_type_0::IntAlu              84784097     74.10%     74.26% # Type of FU issued
system.cpu.iq.FU_type_0::IntMult               646196      0.56%     74.83% # Type of FU issued
system.cpu.iq.FU_type_0::IntDiv                    31      0.00%     74.83% # Type of FU issued
system.cpu.iq.FU_type_0::FloatAdd               65557      0.06%     74.89% # Type of FU issued
system.cpu.iq.FU_type_0::FloatCmp                   0      0.00%     74.89% # Type of FU issued
system.cpu.iq.FU_type_0::FloatCvt                   0      0.00%     74.89% # Type of FU issued
system.cpu.iq.FU_type_0::FloatMult                  0      0.00%     74.89% # Type of FU issued
system.cpu.iq.FU_type_0::FloatMultAcc               0      0.00%     74.89% # Type of FU issued
system.cpu.iq.FU_type_0::FloatDiv                   0      0.00%     74.89% # Type of FU issued
system.cpu.iq.FU_type_0::FloatMisc                  0      0.00%     74.89% # Type of FU issued
system.cpu.iq.FU_type_0::FloatSqrt                  0      0.00%     74.89% # Type of FU issued
system.cpu.iq.FU_type_0::SimdAdd                  377      0.00%     74.89% # Type of FU issued
system.cpu.iq.FU_type_0::SimdAddAcc                 0      0.00%     74.89% # Type of FU issued
system.cpu.iq.FU_type_0::SimdAlu                   99      0.00%     74.89% # Type of FU issued
system.cpu.iq.FU_type_0::SimdCmp                    0      0.00%     74.89% # Type of FU issued
system.cpu.iq.FU_type_0::SimdCvt                  148      0.00%     74.89% # Type of FU issued
system.cpu.iq.FU_type_0::SimdMisc                 258      0.00%     74.89% # Type of FU issued
system.cpu.iq.FU_type_0::SimdMult                   0      0.00%     74.89% # Type of FU issued
system.cpu.iq.FU_type_0::SimdMultAcc                0      0.00%     74.89% # Type of FU issued
system.cpu.iq.FU_type_0::SimdShift                186      0.00%     74.89% # Type of FU issued
system.cpu.iq.FU_type_0::SimdShiftAcc               0      0.00%     74.89% # Type of FU issued
system.cpu.iq.FU_type_0::SimdSqrt                   0      0.00%     74.89% # Type of FU issued
system.cpu.iq.FU_type_0::SimdFloatAdd               0      0.00%     74.89% # Type of FU issued
system.cpu.iq.FU_type_0::SimdFloatAlu               0      0.00%     74.89% # Type of FU issued
system.cpu.iq.FU_type_0::SimdFloatCmp               0      0.00%     74.89% # Type of FU issued
system.cpu.iq.FU_type_0::SimdFloatCvt               0      0.00%     74.89% # Type of FU issued
system.cpu.iq.FU_type_0::SimdFloatDiv               0      0.00%     74.89% # Type of FU issued
system.cpu.iq.FU_type_0::SimdFloatMisc              0      0.00%     74.89% # Type of FU issued
system.cpu.iq.FU_type_0::SimdFloatMult              0      0.00%     74.89% # Type of FU issued
system.cpu.iq.FU_type_0::SimdFloatMultAcc            0      0.00%     74.89% # Type of FU issued
system.cpu.iq.FU_type_0::SimdFloatSqrt              0      0.00%     74.89% # Type of FU issued
system.cpu.iq.FU_type_0::SimdAes                    0      0.00%     74.89% # Type of FU issued
system.cpu.iq.FU_type_0::SimdAesMix                 0      0.00%     74.89% # Type of FU issued
system.cpu.iq.FU_type_0::SimdSha1Hash               0      0.00%     74.89% # Type of FU issued
system.cpu.iq.FU_type_0::SimdSha1Hash2              0      0.00%     74.89% # Type of FU issued
system.cpu.iq.FU_type_0::SimdSha256Hash             0      0.00%     74.89% # Type of FU issued
system.cpu.iq.FU_type_0::SimdSha256Hash2            0      0.00%     74.89% # Type of FU issued
system.cpu.iq.FU_type_0::SimdShaSigma2              0      0.00%     74.89% # Type of FU issued
system.cpu.iq.FU_type_0::SimdShaSigma3              0      0.00%     74.89% # Type of FU issued
system.cpu.iq.FU_type_0::MemRead             19704979     17.22%     92.11% # Type of FU issued
system.cpu.iq.FU_type_0::MemWrite             8501406      7.43%     99.54% # Type of FU issued
system.cpu.iq.FU_type_0::FloatMemRead          262299      0.23%     99.77% # Type of FU issued
system.cpu.iq.FU_type_0::FloatMemWrite         262682      0.23%    100.00% # Type of FU issued
system.cpu.iq.FU_type_0::IprAccess                  0      0.00%    100.00% # Type of FU issued
system.cpu.iq.FU_type_0::InstPrefetch               0      0.00%    100.00% # Type of FU issued
system.cpu.iq.FU_type_0::total              114411433                       # Type of FU issued
system.cpu.iq.rate                           1.513820                       # Inst issue rate
system.cpu.iq.fu_busy_cnt                    33279018                       # FU busy when requested
system.cpu.iq.fu_busy_rate                   0.290871                       # FU busy rate (busy events/executed inst)
system.cpu.iq.int_inst_queue_reads          336568319                       # Number of integer instruction queue reads
system.cpu.iq.int_inst_queue_writes         120739626                       # Number of integer instruction queue writes
system.cpu.iq.int_inst_queue_wakeup_accesses    112739291                       # Number of integer instruction queue wakeup accesses
system.cpu.iq.fp_inst_queue_reads             1185044                       # Number of floating instruction queue reads
system.cpu.iq.fp_inst_queue_writes             592440                       # Number of floating instruction queue writes
system.cpu.iq.fp_inst_queue_wakeup_accesses       592099                       # Number of floating instruction queue wakeup accesses
system.cpu.iq.vec_inst_queue_reads                  0                       # Number of vector instruction queue reads
system.cpu.iq.vec_inst_queue_writes                 0                       # Number of vector instruction queue writes
system.cpu.iq.vec_inst_queue_wakeup_accesses            0                       # Number of vector instruction queue wakeup accesses
system.cpu.iq.int_alu_accesses              146914431                       # Number of integer alu accesses
system.cpu.iq.fp_alu_accesses                  592902                       # Number of floating point alu accesses
system.cpu.iq.vec_alu_accesses                      0                       # Number of vector alu accesses
system.cpu.iew.lsq.thread0.forwLoads          2138228                       # Number of loads that had data forwarded from stores
system.cpu.iew.lsq.thread0.invAddrLoads             0                       # Number of loads ignored due to an invalid address
system.cpu.iew.lsq.thread0.squashedLoads      1063900                       # Number of loads squashed
system.cpu.iew.lsq.thread0.ignoredResponses          122                       # Number of memory responses ignored because the instruction is squashed
system.cpu.iew.lsq.thread0.memOrderViolation          446                       # Number of memory ordering violations
system.cpu.iew.lsq.thread0.squashedStores       290295                       # Number of stores squashed
system.cpu.iew.lsq.thread0.invAddrSwpfs             0                       # Number of software prefetches ignored due to an invalid address
system.cpu.iew.lsq.thread0.blockedLoads             0                       # Number of blocked loads due to partial load-store forwarding
system.cpu.iew.lsq.thread0.rescheduledLoads            1                       # Number of loads that were rescheduled
system.cpu.iew.lsq.thread0.cacheBlocked            25                       # Number of times an access to memory failed due to the cache being blocked
system.cpu.iew.iewIdleCycles                        0                       # Number of cycles IEW is idle
system.cpu.iew.iewSquashCycles                 264867                       # Number of cycles IEW is squashing
system.cpu.iew.iewBlockCycles                   56323                       # Number of cycles IEW is blocking
system.cpu.iew.iewUnblockCycles                 31915                       # Number of cycles IEW is unblocking
system.cpu.iew.iewDispatchedInsts           115685653                       # Number of instructions dispatched to IQ
system.cpu.iew.iewDispSquashedInsts            614085                       # Number of squashed instructions skipped by dispatch
system.cpu.iew.iewDispLoadInsts              20113782                       # Number of dispatched load instructions
system.cpu.iew.iewDispStoreInsts              8941819                       # Number of dispatched store instructions
system.cpu.iew.iewDispNonSpecInsts                112                       # Number of dispatched non-speculative instructions
system.cpu.iew.iewIQFullEvents                      4                       # Number of times the IQ has become full, causing a stall
system.cpu.iew.iewLSQFullEvents                 31886                       # Number of times the LSQ has become full, causing a stall
system.cpu.iew.memOrderViolationEvents            446                       # Number of memory order violations
system.cpu.iew.predictedTakenIncorrect            854                       # Number of branches that were predicted taken incorrectly
system.cpu.iew.predictedNotTakenIncorrect       263842                       # Number of branches that were predicted not taken incorrectly
system.cpu.iew.branchMispredicts               264696                       # Number of branch mispredicts detected at execute
system.cpu.iew.iewExecutedInsts             113507460                       # Number of executed instructions
system.cpu.iew.iewExecLoadInsts              19827890                       # Number of load instructions executed
system.cpu.iew.iewExecSquashedInsts            903973                       # Number of squashed instructions skipped in execute
system.cpu.iew.exec_swp                             0                       # number of swp insts executed
system.cpu.iew.exec_nop                             0                       # number of nop insts executed
system.cpu.iew.exec_refs                     28569245                       # number of memory reference insts executed
system.cpu.iew.exec_branches                 10752130                       # Number of branches executed
system.cpu.iew.exec_stores                    8741355                       # Number of stores executed
system.cpu.iew.exec_rate                     1.501859                       # Inst execution rate
system.cpu.iew.wb_sent                      113331639                       # cumulative count of insts sent to commit
system.cpu.iew.wb_count                     113331390                       # cumulative count of insts written-back
system.cpu.iew.wb_producers                  83494927                       # num instructions producing a value
system.cpu.iew.wb_consumers                 118326615                       # num instructions consuming a value
system.cpu.iew.wb_rate                       1.499530                       # insts written-back per cycle
system.cpu.iew.wb_fanout                     0.705631                       # average fanout of values written-back
system.cpu.commit.commitSquashedInsts         5331183                       # The number of squashed insts skipped by commit
system.cpu.commit.commitNonSpecStalls              36                       # The number of times commit has been forced to stall to communicate backwards
system.cpu.commit.branchMispredicts            264432                       # The number of times a branch was mispredicted
system.cpu.commit.committed_per_cycle::samples     75231107                       # Number of insts commited each cycle
system.cpu.commit.committed_per_cycle::mean     1.462689                       # Number of insts commited each cycle
system.cpu.commit.committed_per_cycle::stdev     1.613090                       # Number of insts commited each cycle
system.cpu.commit.committed_per_cycle::underflows            0      0.00%      0.00% # Number of insts commited each cycle
system.cpu.commit.committed_per_cycle::0     34029782     45.23%     45.23% # Number of insts commited each cycle
system.cpu.commit.committed_per_cycle::1     11555351     15.36%     60.59% # Number of insts commited each cycle
system.cpu.commit.committed_per_cycle::2      5757841      7.65%     68.25% # Number of insts commited each cycle
system.cpu.commit.committed_per_cycle::3      8583880     11.41%     79.66% # Number of insts commited each cycle
system.cpu.commit.committed_per_cycle::4     15304253     20.34%    100.00% # Number of insts commited each cycle
system.cpu.commit.committed_per_cycle::overflows            0      0.00%    100.00% # Number of insts commited each cycle
system.cpu.commit.committed_per_cycle::min_value            0                       # Number of insts commited each cycle
system.cpu.commit.committed_per_cycle::max_value            4                       # Number of insts commited each cycle
system.cpu.commit.committed_per_cycle::total     75231107                       # Number of insts commited each cycle
system.cpu.commit.committedInsts             62525833                       # Number of instructions committed
system.cpu.commit.committedOps              110039685                       # Number of ops (including micro ops) committed
system.cpu.commit.swp_count                         0                       # Number of s/w prefetches committed
system.cpu.commit.refs                       27701406                       # Number of memory references committed
system.cpu.commit.loads                      19049882                       # Number of loads committed
system.cpu.commit.membars                           0                       # Number of memory barriers committed
system.cpu.commit.branches                   10575287                       # Number of branches committed
system.cpu.commit.vec_insts                         0                       # Number of committed Vector instructions.
system.cpu.commit.fp_insts                     591928                       # Number of committed floating point instructions.
system.cpu.commit.int_insts                 109906472                       # Number of committed integer instructions.
system.cpu.commit.function_calls               329514                       # Number of function calls committed.
system.cpu.commit.op_class_0::No_OpClass        66156      0.06%      0.06% # Class of committed instruction
system.cpu.commit.op_class_0::IntAlu         81559305     74.12%     74.18% # Class of committed instruction
system.cpu.commit.op_class_0::IntMult          646190      0.59%     74.77% # Class of committed instruction
system.cpu.commit.op_class_0::IntDiv               28      0.00%     74.77% # Class of committed instruction
system.cpu.commit.op_class_0::FloatAdd          65551      0.06%     74.83% # Class of committed instruction
system.cpu.commit.op_class_0::FloatCmp              0      0.00%     74.83% # Class of committed instruction
system.cpu.commit.op_class_0::FloatCvt              0      0.00%     74.83% # Class of committed instruction
system.cpu.commit.op_class_0::FloatMult             0      0.00%     74.83% # Class of committed instruction
system.cpu.commit.op_class_0::FloatMultAcc            0      0.00%     74.83% # Class of committed instruction
system.cpu.commit.op_class_0::FloatDiv              0      0.00%     74.83% # Class of committed instruction
system.cpu.commit.op_class_0::FloatMisc             0      0.00%     74.83% # Class of committed instruction
system.cpu.commit.op_class_0::FloatSqrt             0      0.00%     74.83% # Class of committed instruction
system.cpu.commit.op_class_0::SimdAdd             374      0.00%     74.83% # Class of committed instruction
system.cpu.commit.op_class_0::SimdAddAcc            0      0.00%     74.83% # Class of committed instruction
system.cpu.commit.op_class_0::SimdAlu              94      0.00%     74.83% # Class of committed instruction
system.cpu.commit.op_class_0::SimdCmp               0      0.00%     74.83% # Class of committed instruction
system.cpu.commit.op_class_0::SimdCvt             140      0.00%     74.83% # Class of committed instruction
system.cpu.commit.op_class_0::SimdMisc            255      0.00%     74.83% # Class of committed instruction
system.cpu.commit.op_class_0::SimdMult              0      0.00%     74.83% # Class of committed instruction
system.cpu.commit.op_class_0::SimdMultAcc            0      0.00%     74.83% # Class of committed instruction
system.cpu.commit.op_class_0::SimdShift           186      0.00%     74.83% # Class of committed instruction
system.cpu.commit.op_class_0::SimdShiftAcc            0      0.00%     74.83% # Class of committed instruction
system.cpu.commit.op_class_0::SimdSqrt              0      0.00%     74.83% # Class of committed instruction
system.cpu.commit.op_class_0::SimdFloatAdd            0      0.00%     74.83% # Class of committed instruction
system.cpu.commit.op_class_0::SimdFloatAlu            0      0.00%     74.83% # Class of committed instruction
system.cpu.commit.op_class_0::SimdFloatCmp            0      0.00%     74.83% # Class of committed instruction
system.cpu.commit.op_class_0::SimdFloatCvt            0      0.00%     74.83% # Class of committed instruction
system.cpu.commit.op_class_0::SimdFloatDiv            0      0.00%     74.83% # Class of committed instruction
system.cpu.commit.op_class_0::SimdFloatMisc            0      0.00%     74.83% # Class of committed instruction
system.cpu.commit.op_class_0::SimdFloatMult            0      0.00%     74.83% # Class of committed instruction
system.cpu.commit.op_class_0::SimdFloatMultAcc            0      0.00%     74.83% # Class of committed instruction
system.cpu.commit.op_class_0::SimdFloatSqrt            0      0.00%     74.83% # Class of committed instruction
system.cpu.commit.op_class_0::SimdAes               0      0.00%     74.83% # Class of committed instruction
system.cpu.commit.op_class_0::SimdAesMix            0      0.00%     74.83% # Class of committed instruction
system.cpu.commit.op_class_0::SimdSha1Hash            0      0.00%     74.83% # Class of committed instruction
system.cpu.commit.op_class_0::SimdSha1Hash2            0      0.00%     74.83% # Class of committed instruction
system.cpu.commit.op_class_0::SimdSha256Hash            0      0.00%     74.83% # Class of committed instruction
system.cpu.commit.op_class_0::SimdSha256Hash2            0      0.00%     74.83% # Class of committed instruction
system.cpu.commit.op_class_0::SimdShaSigma2            0      0.00%     74.83% # Class of committed instruction
system.cpu.commit.op_class_0::SimdShaSigma3            0      0.00%     74.83% # Class of committed instruction
system.cpu.commit.op_class_0::MemRead        18787650     17.07%     91.90% # Class of committed instruction
system.cpu.commit.op_class_0::MemWrite        8388953      7.62%     99.52% # Class of committed instruction
system.cpu.commit.op_class_0::FloatMemRead       262232      0.24%     99.76% # Class of committed instruction
system.cpu.commit.op_class_0::FloatMemWrite       262571      0.24%    100.00% # Class of committed instruction
system.cpu.commit.op_class_0::IprAccess             0      0.00%    100.00% # Class of committed instruction
system.cpu.commit.op_class_0::InstPrefetch            0      0.00%    100.00% # Class of committed instruction
system.cpu.commit.op_class_0::total         110039685                       # Class of committed instruction
system.cpu.commit.bw_lim_events              15304253                       # number cycles where commit BW limit reached
system.cpu.rob.rob_reads                    175297722                       # The number of ROB reads
system.cpu.rob.rob_writes                   231050826                       # The number of ROB writes
system.cpu.timesIdled                             445                       # Number of times that the entire CPU went into an idle state and unscheduled itself
system.cpu.idleCycles                           37767                       # Total number of cycles that the CPU has spent unscheduled due to idling
system.cpu.committedInsts                    62525833                       # Number of Instructions Simulated
system.cpu.committedOps                     110039685                       # Number of Ops (including micro ops) Simulated
system.cpu.cpi                               1.208748                       # CPI: Cycles Per Instruction
system.cpu.cpi_total                         1.208748                       # CPI: Total CPI of All Threads
system.cpu.ipc                               0.827302                       # IPC: Instructions Per Cycle
system.cpu.ipc_total                         0.827302                       # IPC: Total IPC of All Threads
system.cpu.int_regfile_reads                174003039                       # number of integer regfile reads
system.cpu.int_regfile_writes                94000877                       # number of integer regfile writes
system.cpu.fp_regfile_reads                    266309                       # number of floating regfile reads
system.cpu.fp_regfile_writes                   329352                       # number of floating regfile writes
system.cpu.cc_regfile_reads                  51526393                       # number of cc regfile reads
system.cpu.cc_regfile_writes                 40450452                       # number of cc regfile writes
system.cpu.misc_regfile_reads                51102127                       # number of misc regfile reads
system.cpu.dcache.tags.pwrStateResidencyTicks::UNDEFINED  37788981500                       # Cumulative time (in ticks) in various power states
system.cpu.dcache.tags.tagsinuse           511.411959                       # Cycle average of tags in use
system.cpu.dcache.tags.total_refs            26340857                       # Total number of references to valid blocks.
system.cpu.dcache.tags.sampled_refs             15230                       # Sample count of references to valid blocks.
system.cpu.dcache.tags.avg_refs           1729.537557                       # Average number of references to valid blocks.
system.cpu.dcache.tags.warmup_cycle            169500                       # Cycle when the warmup percentage was hit.
system.cpu.dcache.tags.occ_blocks::.cpu.data   511.411959                       # Average occupied blocks per requestor
system.cpu.dcache.tags.occ_percent::.cpu.data     0.998851                       # Average percentage of cache occupancy
system.cpu.dcache.tags.occ_percent::total     0.998851                       # Average percentage of cache occupancy
system.cpu.dcache.tags.occ_task_id_blocks::1024          512                       # Occupied blocks per task id
system.cpu.dcache.tags.age_task_id_blocks_1024::0          111                       # Occupied blocks per task id
system.cpu.dcache.tags.age_task_id_blocks_1024::1          399                       # Occupied blocks per task id
system.cpu.dcache.tags.age_task_id_blocks_1024::4            2                       # Occupied blocks per task id
system.cpu.dcache.tags.occ_task_id_percent::1024            1                       # Percentage of cache occupancy per task id
system.cpu.dcache.tags.tag_accesses         210743462                       # Number of tag accesses
system.cpu.dcache.tags.data_accesses        210743462                       # Number of data accesses
system.cpu.dcache.pwrStateResidencyTicks::UNDEFINED  37788981500                       # Cumulative time (in ticks) in various power states
system.cpu.dcache.ReadReq_hits::.cpu.data     17683120                       # number of ReadReq hits
system.cpu.dcache.ReadReq_hits::total        17683120                       # number of ReadReq hits
system.cpu.dcache.WriteReq_hits::.cpu.data      8641940                       # number of WriteReq hits
system.cpu.dcache.WriteReq_hits::total        8641940                       # number of WriteReq hits
system.cpu.dcache.demand_hits::.cpu.data     26325060                       # number of demand (read+write) hits
system.cpu.dcache.demand_hits::total         26325060                       # number of demand (read+write) hits
system.cpu.dcache.overall_hits::.cpu.data     26325060                       # number of overall hits
system.cpu.dcache.overall_hits::total        26325060                       # number of overall hits
system.cpu.dcache.ReadReq_misses::.cpu.data         6385                       # number of ReadReq misses
system.cpu.dcache.ReadReq_misses::total          6385                       # number of ReadReq misses
system.cpu.dcache.WriteReq_misses::.cpu.data         9584                       # number of WriteReq misses
system.cpu.dcache.WriteReq_misses::total         9584                       # number of WriteReq misses
system.cpu.dcache.demand_misses::.cpu.data        15969                       # number of demand (read+write) misses
system.cpu.dcache.demand_misses::total          15969                       # number of demand (read+write) misses
system.cpu.dcache.overall_misses::.cpu.data        15969                       # number of overall misses
system.cpu.dcache.overall_misses::total         15969                       # number of overall misses
system.cpu.dcache.ReadReq_miss_latency::.cpu.data    229020000                       # number of ReadReq miss cycles
system.cpu.dcache.ReadReq_miss_latency::total    229020000                       # number of ReadReq miss cycles
system.cpu.dcache.WriteReq_miss_latency::.cpu.data    867112498                       # number of WriteReq miss cycles
system.cpu.dcache.WriteReq_miss_latency::total    867112498                       # number of WriteReq miss cycles
system.cpu.dcache.demand_miss_latency::.cpu.data   1096132498                       # number of demand (read+write) miss cycles
system.cpu.dcache.demand_miss_latency::total   1096132498                       # number of demand (read+write) miss cycles
system.cpu.dcache.overall_miss_latency::.cpu.data   1096132498                       # number of overall miss cycles
system.cpu.dcache.overall_miss_latency::total   1096132498                       # number of overall miss cycles
system.cpu.dcache.ReadReq_accesses::.cpu.data     17689505                       # number of ReadReq accesses(hits+misses)
system.cpu.dcache.ReadReq_accesses::total     17689505                       # number of ReadReq accesses(hits+misses)
system.cpu.dcache.WriteReq_accesses::.cpu.data      8651524                       # number of WriteReq accesses(hits+misses)
system.cpu.dcache.WriteReq_accesses::total      8651524                       # number of WriteReq accesses(hits+misses)
system.cpu.dcache.demand_accesses::.cpu.data     26341029                       # number of demand (read+write) accesses
system.cpu.dcache.demand_accesses::total     26341029                       # number of demand (read+write) accesses
system.cpu.dcache.overall_accesses::.cpu.data     26341029                       # number of overall (read+write) accesses
system.cpu.dcache.overall_accesses::total     26341029                       # number of overall (read+write) accesses
system.cpu.dcache.ReadReq_miss_rate::.cpu.data     0.000361                       # miss rate for ReadReq accesses
system.cpu.dcache.ReadReq_miss_rate::total     0.000361                       # miss rate for ReadReq accesses
system.cpu.dcache.WriteReq_miss_rate::.cpu.data     0.001108                       # miss rate for WriteReq accesses
system.cpu.dcache.WriteReq_miss_rate::total     0.001108                       # miss rate for WriteReq accesses
system.cpu.dcache.demand_miss_rate::.cpu.data     0.000606                       # miss rate for demand accesses
system.cpu.dcache.demand_miss_rate::total     0.000606                       # miss rate for demand accesses
system.cpu.dcache.overall_miss_rate::.cpu.data     0.000606                       # miss rate for overall accesses
system.cpu.dcache.overall_miss_rate::total     0.000606                       # miss rate for overall accesses
system.cpu.dcache.ReadReq_avg_miss_latency::.cpu.data 35868.441660                       # average ReadReq miss latency
[...]
system.l3cache.tags.occ_percent::.cpu.data     0.142397                       # Average percentage of cache occupancy
system.l3cache.tags.occ_percent::total       0.163732                       # Average percentage of cache occupancy
system.l3cache.tags.occ_task_id_blocks::1024         9570                       # Occupied blocks per task id
system.l3cache.tags.age_task_id_blocks_1024::0           67                       # Occupied blocks per task id
system.l3cache.tags.age_task_id_blocks_1024::1           19                       # Occupied blocks per task id
system.l3cache.tags.age_task_id_blocks_1024::2          207                       # Occupied blocks per task id
system.l3cache.tags.age_task_id_blocks_1024::3         2075                       # Occupied blocks per task id
system.l3cache.tags.age_task_id_blocks_1024::4         7202                       # Occupied blocks per task id
system.l3cache.tags.occ_task_id_percent::1024     0.292053                       # Percentage of cache occupancy per task id
system.l3cache.tags.tag_accesses               394066                       # Number of tag accesses
system.l3cache.tags.data_accesses              394066                       # Number of data accesses
system.l3cache.pwrStateResidencyTicks::UNDEFINED  37788981500                       # Cumulative time (in ticks) in various power states
system.l3cache.WritebackDirty_hits::.writebacks         9478                       # number of WritebackDirty hits
system.l3cache.WritebackDirty_hits::total         9478                       # number of WritebackDirty hits
system.l3cache.ReadExReq_hits::.cpu.data          313                       # number of ReadExReq hits
system.l3cache.ReadExReq_hits::total              313                       # number of ReadExReq hits
system.l3cache.ReadSharedReq_hits::.cpu.inst           14                       # number of ReadSharedReq hits
system.l3cache.ReadSharedReq_hits::.cpu.data         4656                       # number of ReadSharedReq hits
system.l3cache.ReadSharedReq_hits::total         4670                       # number of ReadSharedReq hits
system.l3cache.demand_hits::.cpu.inst              14                       # number of demand (read+write) hits
system.l3cache.demand_hits::.cpu.data            4969                       # number of demand (read+write) hits
system.l3cache.demand_hits::total                4983                       # number of demand (read+write) hits
system.l3cache.overall_hits::.cpu.inst             14                       # number of overall hits
system.l3cache.overall_hits::.cpu.data           4969                       # number of overall hits
system.l3cache.overall_hits::total               4983                       # number of overall hits
system.l3cache.ReadExReq_misses::.cpu.data         8490                       # number of ReadExReq misses
system.l3cache.ReadExReq_misses::total           8490                       # number of ReadExReq misses
system.l3cache.ReadSharedReq_misses::.cpu.inst          795                       # number of ReadSharedReq misses
system.l3cache.ReadSharedReq_misses::.cpu.data          285                       # number of ReadSharedReq misses
system.l3cache.ReadSharedReq_misses::total         1080                       # number of ReadSharedReq misses
system.l3cache.demand_misses::.cpu.inst           795                       # number of demand (read+write) misses
system.l3cache.demand_misses::.cpu.data          8775                       # number of demand (read+write) misses
system.l3cache.demand_misses::total              9570                       # number of demand (read+write) misses
system.l3cache.overall_misses::.cpu.inst          795                       # number of overall misses
system.l3cache.overall_misses::.cpu.data         8775                       # number of overall misses
system.l3cache.overall_misses::total             9570                       # number of overall misses
system.l3cache.ReadExReq_miss_latency::.cpu.data    735402500                       # number of ReadExReq miss cycles
system.l3cache.ReadExReq_miss_latency::total    735402500                       # number of ReadExReq miss cycles
system.l3cache.ReadSharedReq_miss_latency::.cpu.inst     61028500                       # number of ReadSharedReq miss cycles
system.l3cache.ReadSharedReq_miss_latency::.cpu.data     34647000                       # number of ReadSharedReq miss cycles
system.l3cache.ReadSharedReq_miss_latency::total     95675500                       # number of ReadSharedReq miss cycles
system.l3cache.demand_miss_latency::.cpu.inst     61028500                       # number of demand (read+write) miss cycles
system.l3cache.demand_miss_latency::.cpu.data    770049500                       # number of demand (read+write) miss cycles
system.l3cache.demand_miss_latency::total    831078000                       # number of demand (read+write) miss cycles
system.l3cache.overall_miss_latency::.cpu.inst     61028500                       # number of overall miss cycles
system.l3cache.overall_miss_latency::.cpu.data    770049500                       # number of overall miss cycles
system.l3cache.overall_miss_latency::total    831078000                       # number of overall miss cycles
system.l3cache.WritebackDirty_accesses::.writebacks         9478                       # number of WritebackDirty accesses(hits+misses)
system.l3cache.WritebackDirty_accesses::total         9478                       # number of WritebackDirty accesses(hits+misses)
system.l3cache.ReadExReq_accesses::.cpu.data         8803                       # number of ReadExReq accesses(hits+misses)
system.l3cache.ReadExReq_accesses::total         8803                       # number of ReadExReq accesses(hits+misses)
system.l3cache.ReadSharedReq_accesses::.cpu.inst          809                       # number of ReadSharedReq accesses(hits+misses)
system.l3cache.ReadSharedReq_accesses::.cpu.data         4941                       # number of ReadSharedReq accesses(hits+misses)
system.l3cache.ReadSharedReq_accesses::total         5750                       # number of ReadSharedReq accesses(hits+misses)
system.l3cache.demand_accesses::.cpu.inst          809                       # number of demand (read+write) accesses
system.l3cache.demand_accesses::.cpu.data        13744                       # number of demand (read+write) accesses
system.l3cache.demand_accesses::total           14553                       # number of demand (read+write) accesses
system.l3cache.overall_accesses::.cpu.inst          809                       # number of overall (read+write) accesses
system.l3cache.overall_accesses::.cpu.data        13744                       # number of overall (read+write) accesses
system.l3cache.overall_accesses::total          14553                       # number of overall (read+write) accesses
system.l3cache.ReadExReq_miss_rate::.cpu.data     0.964444                       # miss rate for ReadExReq accesses
system.l3cache.ReadExReq_miss_rate::total     0.964444                       # miss rate for ReadExReq accesses
system.l3cache.ReadSharedReq_miss_rate::.cpu.inst     0.982695                       # miss rate for ReadSharedReq accesses
system.l3cache.ReadSharedReq_miss_rate::.cpu.data     0.057681                       # miss rate for ReadSharedReq accesses
system.l3cache.ReadSharedReq_miss_rate::total     0.187826                       # miss rate for ReadSharedReq accesses
system.l3cache.demand_miss_rate::.cpu.inst     0.982695                       # miss rate for demand accesses
system.l3cache.demand_miss_rate::.cpu.data     0.638460                       # miss rate for demand accesses
system.l3cache.demand_miss_rate::total       0.657596                       # miss rate for demand accesses
system.l3cache.overall_miss_rate::.cpu.inst     0.982695                       # miss rate for overall accesses
system.l3cache.overall_miss_rate::.cpu.data     0.638460                       # miss rate for overall accesses
system.l3cache.overall_miss_rate::total      0.657596                       # miss rate for overall accesses
system.l3cache.ReadExReq_avg_miss_latency::.cpu.data 86619.846879                       # average ReadExReq miss latency
system.l3cache.ReadExReq_avg_miss_latency::total 86619.846879                       # average ReadExReq miss latency
system.l3cache.ReadSharedReq_avg_miss_latency::.cpu.inst 76765.408805                       # average ReadSharedReq miss latency
system.l3cache.ReadSharedReq_avg_miss_latency::.cpu.data 121568.421053                       # average ReadSharedReq miss latency
system.l3cache.ReadSharedReq_avg_miss_latency::total 88588.425926                       # average ReadSharedReq miss latency
system.l3cache.demand_avg_miss_latency::.cpu.inst 76765.408805                       # average overall miss latency
system.l3cache.demand_avg_miss_latency::.cpu.data 87754.928775                       # average overall miss latency
system.l3cache.demand_avg_miss_latency::total 86842.006270                       # average overall miss latency
system.l3cache.overall_avg_miss_latency::.cpu.inst 76765.408805                       # average overall miss latency
system.l3cache.overall_avg_miss_latency::.cpu.data 87754.928775                       # average overall miss latency
system.l3cache.overall_avg_miss_latency::total 86842.006270                       # average overall miss latency
system.l3cache.blocked_cycles::no_mshrs             0                       # number of cycles access was blocked
system.l3cache.blocked_cycles::no_targets            0                       # number of cycles access was blocked
system.l3cache.blocked::no_mshrs                    0                       # number of cycles access was blocked
system.l3cache.blocked::no_targets                  0                       # number of cycles access was blocked
system.l3cache.avg_blocked_cycles::no_mshrs          nan                       # average number of cycles each access was blocked
system.l3cache.avg_blocked_cycles::no_targets          nan                       # average number of cycles each access was blocked
system.l3cache.ReadExReq_mshr_misses::.cpu.data         8490                       # number of ReadExReq MSHR misses
system.l3cache.ReadExReq_mshr_misses::total         8490                       # number of ReadExReq MSHR misses
system.l3cache.ReadSharedReq_mshr_misses::.cpu.inst          795                       # number of ReadSharedReq MSHR misses
system.l3cache.ReadSharedReq_mshr_misses::.cpu.data          285                       # number of ReadSharedReq MSHR misses
system.l3cache.ReadSharedReq_mshr_misses::total         1080                       # number of ReadSharedReq MSHR misses
system.l3cache.demand_mshr_misses::.cpu.inst          795                       # number of demand (read+write) MSHR misses
system.l3cache.demand_mshr_misses::.cpu.data         8775                       # number of demand (read+write) MSHR misses
system.l3cache.demand_mshr_misses::total         9570                       # number of demand (read+write) MSHR misses
system.l3cache.overall_mshr_misses::.cpu.inst          795                       # number of overall MSHR misses
system.l3cache.overall_mshr_misses::.cpu.data         8775                       # number of overall MSHR misses
system.l3cache.overall_mshr_misses::total         9570                       # number of overall MSHR misses
system.l3cache.ReadExReq_mshr_miss_latency::.cpu.data    718422500                       # number of ReadExReq MSHR miss cycles
system.l3cache.ReadExReq_mshr_miss_latency::total    718422500                       # number of ReadExReq MSHR miss cycles
system.l3cache.ReadSharedReq_mshr_miss_latency::.cpu.inst     59438500                       # number of ReadSharedReq MSHR miss cycles
system.l3cache.ReadSharedReq_mshr_miss_latency::.cpu.data     34077000                       # number of ReadSharedReq MSHR miss cycles
system.l3cache.ReadSharedReq_mshr_miss_latency::total     93515500                       # number of ReadSharedReq MSHR miss cycles
system.l3cache.demand_mshr_miss_latency::.cpu.inst     59438500                       # number of demand (read+write) MSHR miss cycles
system.l3cache.demand_mshr_miss_latency::.cpu.data    752499500                       # number of demand (read+write) MSHR miss cycles
system.l3cache.demand_mshr_miss_latency::total    811938000                       # number of demand (read+write) MSHR miss cycles
system.l3cache.overall_mshr_miss_latency::.cpu.inst     59438500                       # number of overall MSHR miss cycles
system.l3cache.overall_mshr_miss_latency::.cpu.data    752499500                       # number of overall MSHR miss cycles
system.l3cache.overall_mshr_miss_latency::total    811938000                       # number of overall MSHR miss cycles
system.l3cache.ReadExReq_mshr_miss_rate::.cpu.data     0.964444                       # mshr miss rate for ReadExReq accesses
system.l3cache.ReadExReq_mshr_miss_rate::total     0.964444                       # mshr miss rate for ReadExReq accesses
system.l3cache.ReadSharedReq_mshr_miss_rate::.cpu.inst     0.982695                       # mshr miss rate for ReadSharedReq accesses
system.l3cache.ReadSharedReq_mshr_miss_rate::.cpu.data     0.057681                       # mshr miss rate for ReadSharedReq accesses
system.l3cache.ReadSharedReq_mshr_miss_rate::total     0.187826                       # mshr miss rate for ReadSharedReq accesses
system.l3cache.demand_mshr_miss_rate::.cpu.inst     0.982695                       # mshr miss rate for demand accesses
system.l3cache.demand_mshr_miss_rate::.cpu.data     0.638460                       # mshr miss rate for demand accesses
system.l3cache.demand_mshr_miss_rate::total     0.657596                       # mshr miss rate for demand accesses
system.l3cache.overall_mshr_miss_rate::.cpu.inst     0.982695                       # mshr miss rate for overall accesses
system.l3cache.overall_mshr_miss_rate::.cpu.data     0.638460                       # mshr miss rate for overall accesses
system.l3cache.overall_mshr_miss_rate::total     0.657596                       # mshr miss rate for overall accesses
system.l3cache.ReadExReq_avg_mshr_miss_latency::.cpu.data 84619.846879                       # average ReadExReq mshr miss latency
system.l3cache.ReadExReq_avg_mshr_miss_latency::total 84619.846879                       # average ReadExReq mshr miss latency
system.l3cache.ReadSharedReq_avg_mshr_miss_latency::.cpu.inst 74765.408805                       # average ReadSharedReq mshr miss latency
system.l3cache.ReadSharedReq_avg_mshr_miss_latency::.cpu.data 119568.421053                       # average ReadSharedReq mshr miss latency
system.l3cache.ReadSharedReq_avg_mshr_miss_latency::total 86588.425926                       # average ReadSharedReq mshr miss latency
system.l3cache.demand_avg_mshr_miss_latency::.cpu.inst 74765.408805                       # average overall mshr miss latency
system.l3cache.demand_avg_mshr_miss_latency::.cpu.data 85754.928775                       # average overall mshr miss latency
system.l3cache.demand_avg_mshr_miss_latency::total 84842.006270                       # average overall mshr miss latency
system.l3cache.overall_avg_mshr_miss_latency::.cpu.inst 74765.408805                       # average overall mshr miss latency
system.l3cache.overall_avg_mshr_miss_latency::.cpu.data 85754.928775                       # average overall mshr miss latency
system.l3cache.overall_avg_mshr_miss_latency::total 84842.006270                       # average overall mshr miss latency
system.l3cache.replacements                         0                       # number of replacements
system.membus.snoop_filter.tot_requests          9570                       # Total number of requests made to the snoop filter.
system.membus.snoop_filter.hit_single_requests            0                       # Number of requests hitting in the snoop filter with a single holder of the requested data.
system.membus.snoop_filter.hit_multi_requests            0                       # Number of requests hitting in the snoop filter with multiple (>1) holders of the requested data.
system.membus.snoop_filter.tot_snoops               0                       # Total number of snoops made to the snoop filter.
system.membus.snoop_filter.hit_single_snoops            0                       # Number of snoops hitting in the snoop filter with a single holder of the requested data.
system.membus.snoop_filter.hit_multi_snoops            0                       # Number of snoops hitting in the snoop filter with multiple (>1) holders of the requested data.
system.membus.pwrStateResidencyTicks::UNDEFINED  37788981500                       # Cumulative time (in ticks) in various power states
system.membus.trans_dist::ReadResp               1080                       # Transaction distribution
system.membus.trans_dist::ReadExReq              8490                       # Transaction distribution
system.membus.trans_dist::ReadExResp             8490                       # Transaction distribution
system.membus.trans_dist::ReadSharedReq          1080                       # Transaction distribution
system.membus.pkt_count_system.l3cache.mem_side::system.mem_ctrl.port        19140                       # Packet count per connected master and slave (bytes)
system.membus.pkt_count_system.l3cache.mem_side::total        19140                       # Packet count per connected master and slave (bytes)
system.membus.pkt_count::total                  19140                       # Packet count per connected master and slave (bytes)
system.membus.pkt_size_system.l3cache.mem_side::system.mem_ctrl.port       612480                       # Cumulative packet size per connected master and slave (bytes)
system.membus.pkt_size_system.l3cache.mem_side::total       612480                       # Cumulative packet size per connected master and slave (bytes)
system.membus.pkt_size::total                  612480                       # Cumulative packet size per connected master and slave (bytes)
system.membus.snoops                                0                       # Total snoops (count)
system.membus.snoopTraffic                          0                       # Total snoop traffic (bytes)
system.membus.snoop_fanout::samples              9570                       # Request fanout histogram
system.membus.snoop_fanout::mean                    0                       # Request fanout histogram
system.membus.snoop_fanout::stdev                   0                       # Request fanout histogram
system.membus.snoop_fanout::underflows              0      0.00%      0.00% # Request fanout histogram
system.membus.snoop_fanout::0                    9570    100.00%    100.00% # Request fanout histogram
system.membus.snoop_fanout::1                       0      0.00%    100.00% # Request fanout histogram
system.membus.snoop_fanout::overflows               0      0.00%    100.00% # Request fanout histogram
system.membus.snoop_fanout::min_value               0                       # Request fanout histogram
system.membus.snoop_fanout::max_value               0                       # Request fanout histogram
system.membus.snoop_fanout::total                9570                       # Request fanout histogram
system.membus.reqLayer0.occupancy             4785000                       # Layer occupancy (ticks)
system.membus.reqLayer0.utilization               0.0                       # Layer utilization (%)
system.membus.respLayer0.occupancy           25114000                       # Layer occupancy (ticks)
system.membus.respLayer0.utilization              0.1                       # Layer utilization (%)

---------- End Simulation Statistics   ----------