
---------- Begin Simulation Statistics ----------
sim_seconds                                  0.041859                       # Number of seconds simulated
sim_ticks                                 41859414500                       # Number of ticks simulated
final_tick                                41859414500                       # Number of ticks from beginning of simulation (restored from checkpoints and never reset)
sim_freq                                 1000000000000                       # Frequency of simulated ticks
host_inst_rate                                 293894                       # Simulator instruction rate (inst/s)
host_op_rate                                   517227                       # Simulator op (including micro ops) rate (op/s)
host_tick_rate                              196754684                       # Simulator tick rate (ticks/s)
host_mem_usage                                 660392                       # Number of bytes of host memory used
host_seconds                                   212.75                       # Real time elapsed on the host
sim_insts                                    62525833                       # Number of instructions simulated
sim_ops                                     110039685                       # Number of ops (including micro ops) simulated
system.clk_domain.voltage_domain.voltage            1                       # Voltage in Volts
system.clk_domain.clock                           500                       # Clock period in ticks
system.mem_ctrl.pwrStateResidencyTicks::UNDEFINED  41859414500                       # Cumulative time (in ticks) in various power states
system.mem_ctrl.bytes_read::.cpu.inst           48384                       # Number of bytes read from this memory
system.mem_ctrl.bytes_read::.cpu.data          561408                       # Number of bytes read from this memory
system.mem_ctrl.bytes_read::total              609792                       # Number of bytes read from this memory
system.mem_ctrl.bytes_inst_read::.cpu.inst        48384                       # Number of instructions bytes read from this memory
system.mem_ctrl.bytes_inst_read::total          48384                       # Number of instructions bytes read from this memory
system.mem_ctrl.num_reads::.cpu.inst              756                       # Number of read requests responded to by this memory
system.mem_ctrl.num_reads::.cpu.data             8772                       # Number of read requests responded to by this memory
system.mem_ctrl.num_reads::total                 9528                       # Number of read requests responded to by this memory
system.mem_ctrl.bw_read::.cpu.inst            1155869                       # Total read bandwidth from this memory (bytes/s)
system.mem_ctrl.bw_read::.cpu.data           13411750                       # Total read bandwidth from this memory (bytes/s)
system.mem_ctrl.bw_read::total               14567619                       # Total read bandwidth from this memory (bytes/s)
system.mem_ctrl.bw_inst_read::.cpu.inst       1155869                       # Instruction read bandwidth from this memory (bytes/s)
system.mem_ctrl.bw_inst_read::total           1155869                       # Instruction read bandwidth from this memory (bytes/s)
system.mem_ctrl.bw_total::.cpu.inst           1155869                       # Total bandwidth to/from this memory (bytes/s)
system.mem_ctrl.bw_total::.cpu.data          13411750                       # Total bandwidth to/from this memory (bytes/s)
system.mem_ctrl.bw_total::total              14567619                       # Total bandwidth to/from this memory (bytes/s)
system.mem_ctrl.avgPriority_.cpu.inst::samples       756.00                       # Average QoS priority value for accepted requests
system.mem_ctrl.avgPriority_.cpu.data::samples      8772.00                       # Average QoS priority value for accepted requests
system.mem_ctrl.priorityMinLatency       0.000000018750                       # per QoS priority minimum request to response latency (s)
system.mem_ctrl.priorityMaxLatency       0.000001102750                       # per QoS priority maximum request to response latency (s)
system.mem_ctrl.numReadWriteTurnArounds             0                       # Number of turnarounds from READ to WRITE
system.mem_ctrl.numWriteReadTurnArounds             0                       # Number of turnarounds from WRITE to READ
system.mem_ctrl.numStayReadState                24543                       # Number of times bus staying in READ state
system.mem_ctrl.numStayWriteState                   0                       # Number of times bus staying in WRITE state
system.mem_ctrl.readReqs                         9528                       # Number of read requests accepted
system.mem_ctrl.writeReqs                           0                       # Number of write requests accepted
system.mem_ctrl.readBursts                       9528                       # Number of DRAM read bursts, including those serviced by the write queue
system.mem_ctrl.writeBursts                         0                       # Number of DRAM write bursts, including those merged in the write queue
system.mem_ctrl.bytesReadDRAM                  609792                       # Total number of bytes read from DRAM
system.mem_ctrl.bytesReadWrQ                        0                       # Total number of bytes read from write queue
system.mem_ctrl.bytesWritten                        0                       # Total number of bytes written to DRAM
system.mem_ctrl.bytesReadSys                   609792                       # Total read bytes from the system interface side
system.mem_ctrl.bytesWrittenSys                     0                       # Total written bytes from the system interface side
system.mem_ctrl.servicedByWrQ                       0                       # Number of DRAM read bursts serviced by the write queue
system.mem_ctrl.mergedWrBursts                      0                       # Number of DRAM write bursts merged with an existing one
system.mem_ctrl.neitherReadNorWriteReqs             0                       # Number of requests that are neither read nor write
system.mem_ctrl.perBankRdBursts::0                778                       # Per bank write bursts
system.mem_ctrl.perBankRdBursts::1                622                       # Per bank write bursts
system.mem_ctrl.perBankRdBursts::2                550                       # Per bank write bursts
system.mem_ctrl.perBankRdBursts::3                527                       # Per bank write bursts
system.mem_ctrl.perBankRdBursts::4                541                       # Per bank write bursts
system.mem_ctrl.perBankRdBursts::5                524                       # Per bank write bursts
system.mem_ctrl.perBankRdBursts::6                585                       # Per bank write bursts
system.mem_ctrl.perBankRdBursts::7                612                       # Per bank write bursts
system.mem_ctrl.perBankRdBursts::8                540                       # Per bank write bursts
system.mem_ctrl.perBankRdBursts::9                565                       # Per bank write bursts
system.mem_ctrl.perBankRdBursts::10               655                       # Per bank write bursts
system.mem_ctrl.perBankRdBursts::11               614                       # Per bank write bursts
system.mem_ctrl.perBankRdBursts::12               569                       # Per bank write bursts
system.mem_ctrl.perBankRdBursts::13               580                       # Per bank write bursts
system.mem_ctrl.perBankRdBursts::14               617                       # Per bank write bursts
system.mem_ctrl.perBankRdBursts::15               649                       # Per bank write bursts
system.mem_ctrl.perBankWrBursts::0                  0                       # Per bank write bursts
system.mem_ctrl.perBankWrBursts::1                  0                       # Per bank write bursts
system.mem_ctrl.perBankWrBursts::2                  0                       # Per bank write bursts
system.mem_ctrl.perBankWrBursts::3                  0                       # Per bank write bursts
system.mem_ctrl.perBankWrBursts::4                  0                       # Per bank write bursts
system.mem_ctrl.perBankWrBursts::5                  0                       # Per bank write bursts
system.mem_ctrl.perBankWrBursts::6                  0                       # Per bank write bursts
system.mem_ctrl.perBankWrBursts::7                  0                       # Per bank write bursts
system.mem_ctrl.perBankWrBursts::8                  0                       # Per bank write bursts
system.mem_ctrl.perBankWrBursts::9                  0                       # Per bank write bursts
system.mem_ctrl.perBankWrBursts::10                 0                       # Per bank write bursts
system.mem_ctrl.perBankWrBursts::11                 0                       # Per bank write bursts
system.mem_ctrl.perBankWrBursts::12                 0                       # Per bank write bursts
system.mem_ctrl.perBankWrBursts::13                 0                       # Per bank write bursts
system.mem_ctrl.perBankWrBursts::14                 0                       # Per bank write bursts
system.mem_ctrl.perBankWrBursts::15                 0                       # Per bank write bursts
system.mem_ctrl.numRdRetry                          0                       # Number of times read queue was full causing retry
system.mem_ctrl.numWrRetry                          0                       # Number of times write queue was full causing retry
system.mem_ctrl.totGap                    41859330500                       # Total gap between requests
system.mem_ctrl.readPktSize::0                      0                       # Read request sizes (log2)
system.mem_ctrl.readPktSize::1                      0                       # Read request sizes (log2)
system.mem_ctrl.readPktSize::2                      0                       # Read request sizes (log2)
system.mem_ctrl.readPktSize::3                      0                       # Read request sizes (log2)
system.mem_ctrl.readPktSize::4                      0                       # Read request sizes (log2)
system.mem_ctrl.readPktSize::5                      0                       # Read request sizes (log2)
system.mem_ctrl.readPktSize::6                   9528                       # Read request sizes (log2)
system.mem_ctrl.writePktSize::0                     0                       # Write request sizes (log2)
system.mem_ctrl.writePktSize::1                     0                       # Write request sizes (log2)
system.mem_ctrl.writePktSize::2                     0                       # Write request sizes (log2)
system.mem_ctrl.writePktSize::3                     0                       # Write request sizes (log2)
system.mem_ctrl.writePktSize::4                     0                       # Write request sizes (log2)
system.mem_ctrl.writePktSize::5                     0                       # Write request sizes (log2)
system.mem_ctrl.writePktSize::6                     0                       # Write request sizes (log2)
system.mem_ctrl.rdQLenPdf::0                     9166                       # What read queue length does an incoming req see
system.mem_ctrl.rdQLenPdf::1                      276                       # What read queue length does an incoming req see
system.mem_ctrl.rdQLenPdf::2                       64                       # What read queue length does an incoming req see
system.mem_ctrl.rdQLenPdf::3                       16                       # What read queue length does an incoming req see
system.mem_ctrl.rdQLenPdf::4                        6                       # What read queue length does an incoming req see
system.mem_ctrl.rdQLenPdf::5                        0                       # What read queue length does an incoming req see
system.mem_ctrl.rdQLenPdf::6                        0                       # What read queue length does an incoming req see
system.mem_ctrl.rdQLenPdf::7                        0                       # What read queue length does an incoming req see
system.mem_ctrl.rdQLenPdf::8                        0                       # What read queue length does an incoming req see
system.mem_ctrl.rdQLenPdf::9                        0                       # What read queue length does an incoming req see
system.mem_ctrl.rdQLenPdf::10                       0                       # What read queue length does an incoming req see
system.mem_ctrl.rdQLenPdf::11                       0                       # What read queue length does an incoming req see
system.mem_ctrl.rdQLenPdf::12                       0                       # What read queue length does an incoming req see
system.mem_ctrl.rdQLenPdf::13                       0                       # What read queue length does an incoming req see
system.mem_ctrl.rdQLenPdf::14                       0                       # What read queue length does an incoming req see
system.mem_ctrl.rdQLenPdf::15                       0                       # What read queue length does an incoming req see
system.mem_ctrl.rdQLenPdf::16                       0                       # What read queue length does an incoming req see
system.mem_ctrl.rdQLenPdf::17                       0                       # What read queue length does an incoming req see
system.mem_ctrl.rdQLenPdf::18                       0                       # What read queue length does an incoming req see
system.mem_ctrl.rdQLenPdf::19                       0                       # What read queue length does an incoming req see
system.mem_ctrl.rdQLenPdf::20                       0                       # What read queue length does an incoming req see
system.mem_ctrl.rdQLenPdf::21                       0                       # What read queue length does an incoming req see
system.mem_ctrl.rdQLenPdf::22                       0                       # What read queue length does an incoming req see
system.mem_ctrl.rdQLenPdf::23                       0                       # What read queue length does an incoming req see
system.mem_ctrl.rdQLenPdf::24                       0                       # What read queue length does an incoming req see
system.mem_ctrl.rdQLenPdf::25                       0                       # What read queue length does an incoming req see
system.mem_ctrl.rdQLenPdf::26                       0                       # What read queue length does an incoming req see
system.mem_ctrl.rdQLenPdf::27                       0                       # What read queue length does an incoming req see
system.mem_ctrl.rdQLenPdf::28                       0                       # What read queue length does an incoming req see
system.mem_ctrl.rdQLenPdf::29                       0                       # What read queue length does an incoming req see
system.mem_ctrl.rdQLenPdf::30                       0                       # What read queue length does an incoming req see
system.mem_ctrl.rdQLenPdf::31                       0                       # What read queue length does an incoming req see
system.mem_ctrl.wrQLenPdf::0                        0                       # What write queue length does an incoming req see
system.mem_ctrl.wrQLenPdf::1                        0                       # What write queue length does an incoming req see
system.mem_ctrl.wrQLenPdf::2                        0                       # What write queue length does an incoming req see
system.mem_ctrl.wrQLenPdf::3                        0                       # What write queue length does an incoming req see
system.mem_ctrl.wrQLenPdf::4                        0                       # What write queue length does an incoming req see
system.mem_ctrl.wrQLenPdf::5                        0                       # What write queue length does an incoming req see
system.mem_ctrl.wrQLenPdf::6                        0                       # What write queue length does an incoming req see
system.mem_ctrl.wrQLenPdf::7                        0                       # What write queue length does an incoming req see
system.mem_ctrl.wrQLenPdf::8                        0                       # What write queue length does an incoming req see
system.mem_ctrl.wrQLenPdf::9                        0                       # What write queue length does an incoming req see
system.mem_ctrl.wrQLenPdf::10                       0                       # What write queue length does an incoming req see
system.mem_ctrl.wrQLenPdf::11                       0                       # What write queue length does an incoming req see
system.mem_ctrl.wrQLenPdf::12                       0                       # What write queue length does an incoming req see
system.mem_ctrl.wrQLenPdf::13                       0                       # What write queue length does an incoming req see
system.mem_ctrl.wrQLenPdf::14                       0                       # What write queue length does an incoming req see
system.mem_ctrl.wrQLenPdf::15                       0                       # What write queue length does an incoming req see
system.mem_ctrl.wrQLenPdf::16                       0                       # What write queue length does an incoming req see
system.mem_ctrl.wrQLenPdf::17                       0                       # What write queue length does an incoming req see
system.mem_ctrl.wrQLenPdf::18                       0                       # What write queue length does an incoming req see
system.mem_ctrl.wrQLenPdf::19                       0                       # What write queue length does an incoming req see
system.mem_ctrl.wrQLenPdf::20                       0                       # What write queue length does an incoming req see
system.mem_ctrl.wrQLenPdf::21                       0                       # What write queue length does an incoming req see
system.mem_ctrl.wrQLenPdf::22                       0                       # What write queue length does an incoming req see
system.mem_ctrl.wrQLenPdf::23                       0                       # What write queue length does an incoming req see
system.mem_ctrl.wrQLenPdf::24                       0                       # What write queue length does an incoming req see
system.mem_ctrl.wrQLenPdf::25                       0                       # What write queue length does an incoming req see
system.mem_ctrl.wrQLenPdf::26                       0                       # What write queue length does an incoming req see
system.mem_ctrl.wrQLenPdf::27                       0                       # What write queue length does an incoming req see
system.mem_ctrl.wrQLenPdf::28                       0                       # What write queue length does an incoming req see
system.mem_ctrl.wrQLenPdf::29                       0                       # What write queue length does an incoming req see
system.mem_ctrl.wrQLenPdf::30                       0                       # What write queue length does an incoming req see
system.mem_ctrl.wrQLenPdf::31                       0                       # What write queue length does an incoming req see
system.mem_ctrl.wrQLenPdf::32                       0                       # What write queue length does an incoming req see
system.mem_ctrl.wrQLenPdf::33                       0                       # What write queue length does an incoming req see
system.mem_ctrl.wrQLenPdf::34                       0                       # What write queue length does an incoming req see
system.mem_ctrl.wrQLenPdf::35                       0                       # What write queue length does an incoming req see
system.mem_ctrl.wrQLenPdf::36                       0                       # What write queue length does an incoming req see
system.mem_ctrl.wrQLenPdf::37                       0                       # What write queue length does an incoming req see
system.mem_ctrl.wrQLenPdf::38                       0                       # What write queue length does an incoming req see
system.mem_ctrl.wrQLenPdf::39                       0                       # What write queue length does an incoming req see
system.mem_ctrl.wrQLenPdf::40                       0                       # What write queue length does an incoming req see
system.mem_ctrl.wrQLenPdf::41                       0                       # What write queue length does an incoming req see
system.mem_ctrl.wrQLenPdf::42                       0                       # What write queue length does an incoming req see
system.mem_ctrl.wrQLenPdf::43                       0                       # What write queue length does an incoming req see
system.mem_ctrl.wrQLenPdf::44                       0                       # What write queue length does an incoming req see
system.mem_ctrl.wrQLenPdf::45                       0                       # What write queue length does an incoming req see
system.mem_ctrl.wrQLenPdf::46                       0                       # What write queue length does an incoming req see
system.mem_ctrl.wrQLenPdf::47                       0                       # What write queue length does an incoming req see
system.mem_ctrl.wrQLenPdf::48                       0                       # What write queue length does an incoming req see
system.mem_ctrl.wrQLenPdf::49                       0                       # What write queue length does an incoming req see
system.mem_ctrl.wrQLenPdf::50                       0                       # What write queue length does an incoming req see
system.mem_ctrl.wrQLenPdf::51                       0                       # What write queue length does an incoming req see
system.mem_ctrl.wrQLenPdf::52                       0                       # What write queue length does an incoming req see
system.mem_ctrl.wrQLenPdf::53                       0                       # What write queue length does an incoming req see
system.mem_ctrl.wrQLenPdf::54                       0                       # What write queue length does an incoming req see
system.mem_ctrl.wrQLenPdf::55                       0                       # What write queue length does an incoming req see
system.mem_ctrl.wrQLenPdf::56                       0                       # What write queue length does an incoming req see
system.mem_ctrl.wrQLenPdf::57                       0                       # What write queue length does an incoming req see
system.mem_ctrl.wrQLenPdf::58                       0                       # What write queue length does an incoming req see
system.mem_ctrl.wrQLenPdf::59                       0                       # What write queue length does an incoming req see
system.mem_ctrl.wrQLenPdf::60                       0                       # What write queue length does an incoming req see
system.mem_ctrl.wrQLenPdf::61                       0                       # What write queue length does an incoming req see
system.mem_ctrl.wrQLenPdf::62                       0                       # What write queue length does an incoming req see
system.mem_ctrl.wrQLenPdf::63                       0                       # What write queue length does an incoming req see
system.mem_ctrl.bytesPerActivate::samples         5731                       # Bytes accessed per row activation
system.mem_ctrl.bytesPerActivate::mean     106.045018                       # Bytes accessed per row activation
system.mem_ctrl.bytesPerActivate::gmean     92.712660                       # Bytes accessed per row activation
system.mem_ctrl.bytesPerActivate::stdev     86.261909                       # Bytes accessed per row activation
system.mem_ctrl.bytesPerActivate::0-127          2992     52.21%     52.21% # Bytes accessed per row activation
system.mem_ctrl.bytesPerActivate::128-255         2575     44.93%     97.14% # Bytes accessed per row activation
system.mem_ctrl.bytesPerActivate::256-383           37      0.65%     97.78% # Bytes accessed per row activation
system.mem_ctrl.bytesPerActivate::384-511           39      0.68%     98.46% # Bytes accessed per row activation
system.mem_ctrl.bytesPerActivate::512-639           54      0.94%     99.41% # Bytes accessed per row activation
system.mem_ctrl.bytesPerActivate::640-767            8      0.14%     99.55% # Bytes accessed per row activation
system.mem_ctrl.bytesPerActivate::768-895            4      0.07%     99.62% # Bytes accessed per row activation
system.mem_ctrl.bytesPerActivate::896-1023            6      0.10%     99.72% # Bytes accessed per row activation
system.mem_ctrl.bytesPerActivate::1024-1151           16      0.28%    100.00% # Bytes accessed per row activation
system.mem_ctrl.bytesPerActivate::total          5731                       # Bytes accessed per row activation
system.mem_ctrl.masterReadBytes::.cpu.inst        48384                       # Per-master bytes read from memory
system.mem_ctrl.masterReadBytes::.cpu.data       561408                       # Per-master bytes read from memory
system.mem_ctrl.masterReadRate::.cpu.inst 1155869.010064629605                       # Per-master bytes read from memory rate (Bytes/sec)
system.mem_ctrl.masterReadRate::.cpu.data 13411749.942178480327                       # Per-master bytes read from memory rate (Bytes/sec)
system.mem_ctrl.masterReadAccesses::.cpu.inst          756                       # Per-master read serviced memory accesses
system.mem_ctrl.masterReadAccesses::.cpu.data         8772                       # Per-master read serviced memory accesses
system.mem_ctrl.masterReadTotalLat::.cpu.inst     29234500                       # Per-master read total memory access latency
system.mem_ctrl.masterReadTotalLat::.cpu.data    406069750                       # Per-master read total memory access latency
system.mem_ctrl.masterReadAvgLat::.cpu.inst     38669.97                       # Per-master read average memory access latency
system.mem_ctrl.masterReadAvgLat::.cpu.data     46291.58                       # Per-master read average memory access latency
system.mem_ctrl.totQLat                     256654250                       # Total ticks spent queuing
system.mem_ctrl.totMemAccLat                435304250                       # Total ticks spent from burst creation until serviced by the DRAM
system.mem_ctrl.totBusLat                    47640000                       # Total ticks spent in databus transfers
system.mem_ctrl.avgQLat                      26936.84                       # Average queueing delay per DRAM burst
system.mem_ctrl.avgBusLat                     5000.00                       # Average bus latency per DRAM burst
system.mem_ctrl.avgMemAccLat                 45686.84                       # Average memory access latency per DRAM burst
system.mem_ctrl.avgRdBW                         14.57                       # Average DRAM read bandwidth in MiByte/s
system.mem_ctrl.avgWrBW                          0.00                       # Average achieved write bandwidth in MiByte/s
system.mem_ctrl.avgRdBWSys                      14.57                       # Average system read bandwidth in MiByte/s
system.mem_ctrl.avgWrBWSys                       0.00                       # Average system write bandwidth in MiByte/s
system.mem_ctrl.peakBW                       12800.00                       # Theoretical peak bandwidth in MiByte/s
system.mem_ctrl.busUtil                          0.11                       # Data bus utilization in percentage
system.mem_ctrl.busUtilRead                      0.11                       # Data bus utilization in percentage for reads
system.mem_ctrl.busUtilWrite                     0.00                       # Data bus utilization in percentage for writes
system.mem_ctrl.avgRdQLen                        1.00                       # Average read queue length when enqueuing
system.mem_ctrl.avgWrQLen                        0.00                       # Average write queue length when enqueuing
system.mem_ctrl.readRowHits                      3788                       # Number of row buffer hits during reads
system.mem_ctrl.writeRowHits                        0                       # Number of row buffer hits during writes
system.mem_ctrl.readRowHitRate                  39.76                       # Row buffer hit rate for reads
system.mem_ctrl.writeRowHitRate                   nan                       # Row buffer hit rate for writes
system.mem_ctrl.avgGap                     4393296.65                       # Average gap between requests
system.mem_ctrl.pageHitRate                     39.76                       # Row buffer hit rate, read and write combined
system.mem_ctrl_0.actEnergy                  20506080                       # Energy for activate commands per rank (pJ)
system.mem_ctrl_0.preEnergy                  10880265                       # Energy for precharge commands per rank (pJ)
system.mem_ctrl_0.readEnergy                 33836460                       # Energy for read commands per rank (pJ)
system.mem_ctrl_0.writeEnergy                       0                       # Energy for write commands per rank (pJ)
system.mem_ctrl_0.refreshEnergy          1676737920.000000                       # Energy for refresh commands per rank (pJ)
system.mem_ctrl_0.actBackEnergy             377398140                       # Energy for active background per rank (pJ)
system.mem_ctrl_0.preBackEnergy              39405120                       # Energy for precharge background per rank (pJ)
system.mem_ctrl_0.actPowerDownEnergy       6208276980                       # Energy for active power-down per rank (pJ)
system.mem_ctrl_0.prePowerDownEnergy       2577550560                       # Energy for precharge power-down per rank (pJ)
system.mem_ctrl_0.selfRefreshEnergy        4971025020                       # Energy for self refresh per rank (pJ)
system.mem_ctrl_0.totalEnergy             15916206825                       # Total energy per rank (pJ)
system.mem_ctrl_0.averagePower             380.230039                       # Core power per rank (mW)
system.mem_ctrl_0.totalIdleTime           40928010750                       # Total Idle time Per DRAM Rank
system.mem_ctrl_0.memoryStateTime::IDLE      29322500                       # Time in different power states
system.mem_ctrl_0.memoryStateTime::REF      709280000                       # Time in different power states
system.mem_ctrl_0.memoryStateTime::SREF   20600848500                       # Time in different power states
system.mem_ctrl_0.memoryStateTime::PRE_PDN   6712393750                       # Time in different power states
system.mem_ctrl_0.memoryStateTime::ACT      192760500                       # Time in different power states
system.mem_ctrl_0.memoryStateTime::ACT_PDN  13614809250                       # Time in different power states
system.mem_ctrl_1.actEnergy                  20477520                       # Energy for activate commands per rank (pJ)
system.mem_ctrl_1.preEnergy                  10868880                       # Energy for precharge commands per rank (pJ)
system.mem_ctrl_1.readEnergy                 34193460                       # Energy for read commands per rank (pJ)
system.mem_ctrl_1.writeEnergy                       0                       # Energy for write commands per rank (pJ)
system.mem_ctrl_1.refreshEnergy          1714230960.000000                       # Energy for refresh commands per rank (pJ)
system.mem_ctrl_1.actBackEnergy             384111030                       # Energy for active background per rank (pJ)
system.mem_ctrl_1.preBackEnergy              44373120                       # Energy for precharge background per rank (pJ)
system.mem_ctrl_1.actPowerDownEnergy       6223880160                       # Energy for active power-down per rank (pJ)
system.mem_ctrl_1.prePowerDownEnergy       2741073600                       # Energy for precharge power-down per rank (pJ)
system.mem_ctrl_1.selfRefreshEnergy        4879375860                       # Energy for self refresh per rank (pJ)
system.mem_ctrl_1.totalEnergy             16053521910                       # Total energy per rank (pJ)
system.mem_ctrl_1.averagePower             383.510427                       # Core power per rank (mW)
system.mem_ctrl_1.totalIdleTime           40898981750                       # Total Idle time Per DRAM Rank
system.mem_ctrl_1.memoryStateTime::IDLE      42202500                       # Time in different power states
system.mem_ctrl_1.memoryStateTime::REF      725140000                       # Time in different power states
system.mem_ctrl_1.memoryStateTime::SREF   20112354250                       # Time in different power states
system.mem_ctrl_1.memoryStateTime::PRE_PDN   7138092000                       # Time in different power states
system.mem_ctrl_1.memoryStateTime::ACT      192886000                       # Time in different power states
system.mem_ctrl_1.memoryStateTime::ACT_PDN  13648739750                       # Time in different power states
system.pwrStateResidencyTicks::UNDEFINED  41859414500                       # Cumulative time (in ticks) in various power states
system.cpu.branchPred.lookups                11908640                       # Number of BP lookups
system.cpu.branchPred.condPredicted          11908640                       # Number of conditional branches predicted
system.cpu.branchPred.condIncorrect            313835                       # Number of conditional branches incorrect
system.cpu.branchPred.BTBLookups             10914064                       # Number of BTB lookups
system.cpu.branchPred.BTBHits                       0                       # Number of BTB hits
system.cpu.branchPred.BTBCorrect                    0                       # Number of correct BTB predictions (this stat may not work properly.
system.cpu.branchPred.BTBHitPct              0.000000                       # BTB Hit Percentage
system.cpu.branchPred.usedRAS                  373626                       # Number of times the RAS was used to get a target.
system.cpu.branchPred.RASInCorrect                252                       # Number of incorrect RAS predictions.
system.cpu.branchPred.indirectLookups        10914064                       # Number of indirect predictor lookups.
system.cpu.branchPred.indirectHits            5770530                       # Number of indirect target hits.
system.cpu.branchPred.indirectMisses          5143534                       # Number of indirect misses.
system.cpu.branchPredindirectMispredicted       263527                       # Number of mispredicted indirect branches.
system.cpu.dtb.walker.pwrStateResidencyTicks::UNDEFINED  41859414500                       # Cumulative time (in ticks) in various power states
system.cpu.dtb.rdAccesses                    20042494                       # TLB accesses on read requests
system.cpu.dtb.wrAccesses                     8741225                       # TLB accesses on write requests
system.cpu.dtb.rdMisses                           429                       # TLB misses on read requests
system.cpu.dtb.wrMisses                           299                       # TLB misses on write requests
system.cpu.apic_clk_domain.clock                 8000                       # Clock period in ticks
system.cpu.interrupts.pwrStateResidencyTicks::UNDEFINED  41859414500                       # Cumulative time (in ticks) in various power states
system.cpu.itb.walker.pwrStateResidencyTicks::UNDEFINED  41859414500                       # Cumulative time (in ticks) in various power states
system.cpu.itb.rdAccesses                           0                       # TLB accesses on read requests
system.cpu.itb.wrAccesses                     9347785                       # TLB accesses on write requests
system.cpu.itb.rdMisses                             0                       # TLB misses on read requests
system.cpu.itb.wrMisses                           161                       # TLB misses on write requests
system.cpu.workload.numSyscalls                    36                       # Number of system calls
system.cpu.pwrStateResidencyTicks::ON     41859414500                       # Cumulative time (in ticks) in various power states
system.cpu.numCycles                         83718830                       # number of cpu cycles simulated
system.cpu.numWorkItemsStarted                      0                       # number of work items this cpu started
system.cpu.numWorkItemsCompleted                    0                       # number of work items this cpu completed
system.cpu.fetch.icacheStallCycles             337564                       # Number of cycles fetch is stalled on an Icache miss
system.cpu.fetch.Insts                       71085260                       # Number of instructions fetch has processed
system.cpu.fetch.Branches                    11908640                       # Number of branches that fetch encountered
system.cpu.fetch.predictedBranches            6144156                       # Number of branches that fetch has predicted taken
system.cpu.fetch.Cycles                      83027151                       # Number of cycles fetch has run and was not squashing or blocked
system.cpu.fetch.SquashCycles                  628532                       # Number of cycles fetch has spent squashing
system.cpu.fetch.MiscStallCycles                   76                       # Number of cycles fetch has spent waiting on interrupts, or bad addresses, or out of MSHRs
system.cpu.fetch.PendingTrapStallCycles          1077                       # Number of stall cycles due to pending traps
system.cpu.fetch.PendingQuiesceStallCycles           11                       # Number of stall cycles due to pending quiesce instructions
system.cpu.fetch.CacheLines                   9347682                       # Number of cache lines fetched
system.cpu.fetch.IcacheSquashes                   463                       # Number of outstanding Icache misses that were squashed
system.cpu.fetch.rateDist::samples           83680145                       # Number of instructions fetched each cycle (Total)
system.cpu.fetch.rateDist::mean              1.494400                       # Number of instructions fetched each cycle (Total)
system.cpu.fetch.rateDist::stdev             0.825923                       # Number of instructions fetched each cycle (Total)
system.cpu.fetch.rateDist::underflows               0      0.00%      0.00% # Number of instructions fetched each cycle (Total)
system.cpu.fetch.rateDist::0                 18082478     21.61%     21.61% # Number of instructions fetched each cycle (Total)
system.cpu.fetch.rateDist::1                  6143734      7.34%     28.95% # Number of instructions fetched each cycle (Total)
system.cpu.fetch.rateDist::2                 59453933     71.05%    100.00% # Number of instructions fetched each cycle (Total)
system.cpu.fetch.rateDist::overflows                0      0.00%    100.00% # Number of instructions fetched each cycle (Total)
system.cpu.fetch.rateDist::min_value                0                       # Number of instructions fetched each cycle (Total)
system.cpu.fetch.rateDist::max_value                2                       # Number of instructions fetched each cycle (Total)
system.cpu.fetch.rateDist::total             83680145                       # Number of instructions fetched each cycle (Total)
system.cpu.fetch.branchRate                  0.142246                       # Number of branch fetches per cycle
system.cpu.fetch.rate                        0.849095                       # Number of inst fetches per cycle
system.cpu.decode.IdleCycles                  5148461                       # Number of cycles decode is idle
system.cpu.decode.BlockedCycles              16042542                       # Number of cycles decode is blocked
system.cpu.decode.RunCycles                  56313925                       # Number of cycles decode is running
system.cpu.decode.UnblockCycles               5860951                       # Number of cycles decode is unblocking
system.cpu.decode.SquashCycles                 314266                       # Number of cycles decode is squashing
system.cpu.decode.DecodedInsts              120300770                       # Number of instructions handled by decode
system.cpu.decode.SquashedInsts               1231827                       # Number of squashed instructions handled by decode
system.cpu.rename.SquashCycles                 314266                       # Number of cycles rename is squashing
system.cpu.rename.IdleCycles                  8908996                       # Number of cycles rename is idle
system.cpu.rename.BlockCycles                 9247818                       # Number of cycles rename is blocking
system.cpu.rename.serializeStallCycles           2015                       # count of cycles rename stalled for serializing inst
system.cpu.rename.RunCycles                  57564958                       # Number of cycles rename is running
system.cpu.rename.UnblockCycles               7642092                       # Number of cycles rename is unblocking
system.cpu.rename.RenamedInsts              119309391                       # Number of instructions processed by rename
system.cpu.rename.SquashedInsts                497181                       # Number of squashed instructions processed by rename
system.cpu.rename.ROBFullEvents                    45                       # Number of times rename has blocked due to ROB full
system.cpu.rename.IQFullEvents                3278466                       # Number of times rename has blocked due to IQ full
system.cpu.rename.SQFullEvents                1654055                       # Number of times rename has blocked due to SQ full
system.cpu.rename.FullRegisterEvents             1908                       # Number of times there has been no free registers
system.cpu.rename.RenamedOperands           142053963                       # Number of destination operands rename has renamed
system.cpu.rename.RenameLookups             292619635                       # Number of register rename lookups that rename has made
system.cpu.rename.int_rename_lookups        184695694                       # Number of integer rename lookups
system.cpu.rename.fp_rename_lookups            266379                       # Number of floating rename lookups
system.cpu.rename.CommittedMaps             130921918                       # Number of HB maps that are committed
system.cpu.rename.UndoneMaps                 11132045                       # Number of HB maps that are undone due to squashing
system.cpu.rename.serializingInsts                 51                       # count of serializing insts renamed
system.cpu.rename.tempSerializingInsts             47                       # count of temporary serializing insts renamed
system.cpu.rename.skidInsts                   9070672                       # count of insts added to the skid buffer
system.cpu.memDep0.insertedLoads             20677281                       # Number of loads inserted to the mem dependence unit.
system.cpu.memDep0.insertedStores             9197706                       # Number of stores inserted to the mem dependence unit.
system.cpu.memDep0.conflictingLoads           5905947                       # Number of conflicting loads.
system.cpu.memDep0.conflictingStores          1092754                       # Number of conflicting stores.
system.cpu.iq.iqInstsAdded                  118151596                       # Number of instructions added to the IQ (excludes non-spec)
system.cpu.iq.iqNonSpecInstsAdded                 169                       # Number of non-speculative instructions added to the IQ
system.cpu.iq.iqInstsIssued                 114534878                       # Number of instructions issued
system.cpu.iq.iqSquashedInstsIssued            350878                       # Number of squashed instructions issued
system.cpu.iq.iqSquashedInstsExamined         8112079                       # Number of squashed instructions iterated over during squash; mainly for profiling
system.cpu.iq.iqSquashedOperandsExamined     11584188                       # Number of squashed operands that are examined and possibly removed from graph
system.cpu.iq.iqSquashedNonSpecRemoved            133                       # Number of squashed non-spec instructions that were removed
system.cpu.iq.issued_per_cycle::samples      83680145                       # Number of insts issued each cycle
system.cpu.iq.issued_per_cycle::mean         1.368722                       # Number of insts issued each cycle
system.cpu.iq.issued_per_cycle::stdev        0.792097                       # Number of insts issued each cycle
system.cpu.iq.issued_per_cycle::underflows            0      0.00%      0.00% # Number of insts issued each cycle
system.cpu.iq.issued_per_cycle::0            16512223     19.73%     19.73% # Number of insts issued each cycle
system.cpu.iq.issued_per_cycle::1            19800966     23.66%     43.40% # Number of insts issued each cycle
system.cpu.iq.issued_per_cycle::2            47366956     56.60%    100.00% # Number of insts issued each cycle
system.cpu.iq.issued_per_cycle::overflows            0      0.00%    100.00% # Number of insts issued each cycle
system.cpu.iq.issued_per_cycle::min_value            0                       # Number of insts issued each cycle
system.cpu.iq.issued_per_cycle::max_value            2                       # Number of insts issued each cycle
system.cpu.iq.issued_per_cycle::total        83680145                       # Number of insts issued each cycle
system.cpu.iq.fu_full::No_OpClass                   0      0.00%      0.00% # attempts to use FU when none available
system.cpu.iq.fu_full::IntAlu                       0      0.00%      0.00% # attempts to use FU when none available
system.cpu.iq.fu_full::IntMult                      0      0.00%      0.00% # attempts to use FU when none available
system.cpu.iq.fu_full::IntDiv                       0      0.00%      0.00% # attempts to use FU when none available
system.cpu.iq.fu_full::FloatAdd                     0      0.00%      0.00% # attempts to use FU when none available
system.cpu.iq.fu_full::FloatCmp                     0      0.00%      0.00% # attempts to use FU when none available
system.cpu.iq.fu_full::FloatCvt                     0      0.00%      0.00% # attempts to use FU when none available
system.cpu.iq.fu_full::FloatMult                    0      0.00%      0.00% # attempts to use FU when none available
system.cpu.iq.fu_full::FloatMultAcc                 0      0.00%      0.00% # attempts to use FU when none available
system.cpu.iq.fu_full::FloatDiv                     0      0.00%      0.00% # attempts to use FU when none available
system.cpu.iq.fu_full::FloatMisc                    0      0.00%      0.00% # attempts to use FU when none available
system.cpu.iq.fu_full::FloatSqrt                    0      0.00%      0.00% # attempts to use FU when none available
system.cpu.iq.fu_full::SimdAdd                    247      0.01%      0.01% # attempts to use FU when none available
system.cpu.iq.fu_full::SimdAddAcc                   0      0.00%      0.01% # attempts to use FU when none available
system.cpu.iq.fu_full::SimdAlu                     65      0.00%      0.01% # attempts to use FU when none available
system.cpu.iq.fu_full::SimdCmp                      0      0.00%      0.01% # attempts to use FU when none available
system.cpu.iq.fu_full::SimdCvt                     44      0.00%      0.01% # attempts to use FU when none available
system.cpu.iq.fu_full::SimdMisc                   140      0.00%      0.01% # attempts to use FU when none available
system.cpu.iq.fu_full::SimdMult                     0      0.00%      0.01% # attempts to use FU when none available
system.cpu.iq.fu_full::SimdMultAcc                  0      0.00%      0.01% # attempts to use FU when none available
system.cpu.iq.fu_full::SimdShift                  121      0.00%      0.01% # attempts to use FU when none available
system.cpu.iq.fu_full::SimdShiftAcc                 0      0.00%      0.01% # attempts to use FU when none available
system.cpu.iq.fu_full::SimdSqrt                     0      0.00%      0.01% # attempts to use FU when none available
system.cpu.iq.fu_full::SimdFloatAdd                 0      0.00%      0.01% # attempts to use FU when none available
system.cpu.iq.fu_full::SimdFloatAlu                 0      0.00%      0.01% # attempts to use FU when none available
system.cpu.iq.fu_full::SimdFloatCmp                 0      0.00%      0.01% # attempts to use FU when none available
system.cpu.iq.fu_full::SimdFloatCvt                 0      0.00%      0.01% # attempts to use FU when none available
system.cpu.iq.fu_full::SimdFloatDiv                 0      0.00%      0.01% # attempts to use FU when none available
system.cpu.iq.fu_full::SimdFloatMisc                0      0.00%      0.01% # attempts to use FU when none available
system.cpu.iq.fu_full::SimdFloatMult                0      0.00%      0.01% # attempts to use FU when none available
system.cpu.iq.fu_full::SimdFloatMultAcc             0      0.00%      0.01% # attempts to use FU when none available
system.cpu.iq.fu_full::SimdFloatSqrt                0      0.00%      0.01% # attempts to use FU when none available
system.cpu.iq.fu_full::SimdAes                      0      0.00%      0.01% # attempts to use FU when none available
system.cpu.iq.fu_full::SimdAesMix                   0      0.00%      0.01% # attempts to use FU when none available
system.cpu.iq.fu_full::SimdSha1Hash                 0      0.00%      0.01% # attempts to use FU when none available
system.cpu.iq.fu_full::SimdSha1Hash2                0      0.00%      0.01% # attempts to use FU when none available
system.cpu.iq.fu_full::SimdSha256Hash               0      0.00%      0.01% # attempts to use FU when none available
system.cpu.iq.fu_full::SimdSha256Hash2              0      0.00%      0.01% # attempts to use FU when none available
system.cpu.iq.fu_full::SimdShaSigma2                0      0.00%      0.01% # attempts to use FU when none available
system.cpu.iq.fu_full::SimdShaSigma3                0      0.00%      0.01% # attempts to use FU when none available
system.cpu.iq.fu_full::MemRead                4173927     85.48%     85.49% # attempts to use FU when none available
system.cpu.iq.fu_full::MemWrite                708568     14.51%    100.00% # attempts to use FU when none available
system.cpu.iq.fu_full::FloatMemRead                 0      0.00%    100.00% # attempts to use FU when none available
system.cpu.iq.fu_full::FloatMemWrite                0      0.00%    100.00% # attempts to use FU when none available
system.cpu.iq.fu_full::IprAccess                    0      0.00%    100.00% # attempts to use FU when none available
system.cpu.iq.fu_full::InstPrefetch                 0      0.00%    100.00% # attempts to use FU when none available
system.cpu.iq.FU_type_0::No_OpClass            241323      0.21%      0.21% # Type of FU issued
system.cpu.iq.FU_type_0::IntAlu              84541567     73.81%     74.02% # Type of FU issued
system.cpu.iq.FU_type_0::IntMult               646197      0.56%     74.59% # Type of FU issued
system.cpu.iq.FU_type_0::IntDiv                    31      0.00%     74.59% # Type of FU issued
system.cpu.iq.FU_type_0::FloatAdd               65552      0.06%     74.65% # Type of FU issued
system.cpu.iq.FU_type_0::FloatCmp                   0      0.00%     74.65% # Type of FU issued
system.cpu.iq.FU_type_0::FloatCvt                   0      0.00%     74.65% # Type of FU issued
system.cpu.iq.FU_type_0::FloatMult                  0      0.00%     74.65% # Type of FU issued
system.cpu.iq.FU_type_0::FloatMultAcc               0      0.00%     74.65% # Type of FU issued
system.cpu.iq.FU_type_0::FloatDiv                   0      0.00%     74.65% # Type of FU issued
system.cpu.iq.FU_type_0::FloatMisc                  0      0.00%     74.65% # Type of FU issued
system.cpu.iq.FU_type_0::FloatSqrt                  0      0.00%     74.65% # Type of FU issued
system.cpu.iq.FU_type_0::SimdAdd                  375      0.00%     74.65% # Type of FU issued
system.cpu.iq.FU_type_0::SimdAddAcc                 0      0.00%     74.65% # Type of FU issued
system.cpu.iq.FU_type_0::SimdAlu                   98      0.00%     74.65% # Type of FU issued
system.cpu.iq.FU_type_0::SimdCmp                    0      0.00%     74.65% # Type of FU issued
system.cpu.iq.FU_type_0::SimdCvt                  147      0.00%     74.65% # Type of FU issued
system.cpu.iq.FU_type_0::SimdMisc                 259      0.00%     74.65% # Type of FU issued
system.cpu.iq.FU_type_0::SimdMult                   0      0.00%     74.65% # Type of FU issued
system.cpu.iq.FU_type_0::SimdMultAcc                0      0.00%     74.65% # Type of FU issued
system.cpu.iq.FU_type_0::SimdShift                186      0.00%     74.65% # Type of FU issued
system.cpu.iq.FU_type_0::SimdShiftAcc               0      0.00%     74.65% # Type of FU issued
system.cpu.iq.FU_type_0::SimdSqrt                   0      0.00%     74.65% # Type of FU issued
system.cpu.iq.FU_type_0::SimdFloatAdd               0      0.00%     74.65% # Type of FU issued
system.cpu.iq.FU_type_0::SimdFloatAlu               0      0.00%     74.65% # Type of FU issued
system.cpu.iq.FU_type_0::SimdFloatCmp               0      0.00%     74.65% # Type of FU issued
system.cpu.iq.FU_type_0::SimdFloatCvt               0      0.00%     74.65% # Type of FU issued
system.cpu.iq.FU_type_0::SimdFloatDiv               0      0.00%     74.65% # Type of FU issued
system.cpu.iq.FU_type_0::SimdFloatMisc              0      0.00%     74.65% # Type of FU issued
system.cpu.iq.FU_type_0::SimdFloatMult              0      0.00%     74.65% # Type of FU issued
system.cpu.iq.FU_type_0::SimdFloatMultAcc            0      0.00%     74.65% # Type of FU issued
system.cpu.iq.FU_type_0::SimdFloatSqrt              0      0.00%     74.65% # Type of FU issued
system.cpu.iq.FU_type_0::SimdAes                    0      0.00%     74.65% # Type of FU issued
system.cpu.iq.FU_type_0::SimdAesMix                 0      0.00%     74.65% # Type of FU issued
system.cpu.iq.FU_type_0::SimdSha1Hash               0      0.00%     74.65% # Type of FU issued
system.cpu.iq.FU_type_0::SimdSha1Hash2              0      0.00%     74.65% # Type of FU issued
system.cpu.iq.FU_type_0::SimdSha256Hash             0      0.00%     74.65% # Type of FU issued
system.cpu.iq.FU_type_0::SimdSha256Hash2            0      0.00%     74.65% # Type of FU issued
system.cpu.iq.FU_type_0::SimdShaSigma2              0      0.00%     74.65% # Type of FU issued
system.cpu.iq.FU_type_0::SimdShaSigma3              0      0.00%     74.65% # Type of FU issued
system.cpu.iq.FU_type_0::MemRead             19977396     17.44%     92.09% # Type of FU issued
system.cpu.iq.FU_type_0::MemWrite             8536773      7.45%     99.54% # Type of FU issued
system.cpu.iq.FU_type_0::FloatMemRead          262286      0.23%     99.77% # Type of FU issued
system.cpu.iq.FU_type_0::FloatMemWrite         262688      0.23%    100.00% # Type of FU issued
system.cpu.iq.FU_type_0::IprAccess                  0      0.00%    100.00% # Type of FU issued
system.cpu.iq.FU_type_0::InstPrefetch               0      0.00%    100.00% # Type of FU issued
system.cpu.iq.FU_type_0::total              114534878                       # Type of FU issued
system.cpu.iq.rate                           1.368090                       # Inst issue rate
system.cpu.iq.fu_busy_cnt                     4883112                       # FU busy when requested
system.cpu.iq.fu_busy_rate                   0.042634                       # FU busy rate (busy events/executed inst)
system.cpu.iq.int_inst_queue_reads          316799022                       # Number of integer instruction queue reads
system.cpu.iq.int_inst_queue_writes         125671824                       # Number of integer instruction queue writes
system.cpu.iq.int_inst_queue_wakeup_accesses    112724744                       # Number of integer instruction queue wakeup accesses
system.cpu.iq.fp_inst_queue_reads             1184869                       # Number of floating instruction queue reads
system.cpu.iq.fp_inst_queue_writes             592386                       # Number of floating instruction queue writes
system.cpu.iq.fp_inst_queue_wakeup_accesses       592068                       # Number of floating instruction queue wakeup accesses
system.cpu.iq.vec_inst_queue_reads                  0                       # Number of vector instruction queue reads
system.cpu.iq.vec_inst_queue_writes                 0                       # Number of vector instruction queue writes
system.cpu.iq.vec_inst_queue_wakeup_accesses            0                       # Number of vector instruction queue wakeup accesses
system.cpu.iq.int_alu_accesses              118583928                       # Number of integer alu accesses
system.cpu.iq.fp_alu_accesses                  592739                       # Number of floating point alu accesses
system.cpu.iq.vec_alu_accesses                      0                       # Number of vector alu accesses
system.cpu.iew.lsq.thread0.forwLoads          2230210                       # Number of loads that had data forwarded from stores
system.cpu.iew.lsq.thread0.invAddrLoads             0                       # Number of loads ignored due to an invalid address
system.cpu.iew.lsq.thread0.squashedLoads      1627399                       # Number of loads squashed
system.cpu.iew.lsq.thread0.ignoredResponses         1287                       # Number of memory responses ignored because the instruction is squashed
system.cpu.iew.lsq.thread0.memOrderViolation          366                       # Number of memory ordering violations
system.cpu.iew.lsq.thread0.squashedStores       546182                       # Number of stores squashed
system.cpu.iew.lsq.thread0.invAddrSwpfs             0                       # Number of software prefetches ignored due to an invalid address
system.cpu.iew.lsq.thread0.blockedLoads             0                       # Number of blocked loads due to partial load-store forwarding
system.cpu.iew.lsq.thread0.rescheduledLoads            1                       # Number of loads that were rescheduled
system.cpu.iew.lsq.thread0.cacheBlocked            50                       # Number of times an access to memory failed due to the cache being blocked
system.cpu.iew.iewIdleCycles                        0                       # Number of cycles IEW is idle
system.cpu.iew.iewSquashCycles                 314266                       # Number of cycles IEW is squashing
system.cpu.iew.iewBlockCycles                 1541478                       # Number of cycles IEW is blocking
system.cpu.iew.iewUnblockCycles                502508                       # Number of cycles IEW is unblocking
system.cpu.iew.iewDispatchedInsts           118151765                       # Number of instructions dispatched to IQ
system.cpu.iew.iewDispSquashedInsts            263576                       # Number of squashed instructions skipped by dispatch
system.cpu.iew.iewDispLoadInsts              20677281                       # Number of dispatched load instructions
system.cpu.iew.iewDispStoreInsts              9197706                       # Number of dispatched store instructions
system.cpu.iew.iewDispNonSpecInsts                 82                       # Number of dispatched non-speculative instructions
system.cpu.iew.iewIQFullEvents                 408828                       # Number of times the IQ has become full, causing a stall
system.cpu.iew.iewLSQFullEvents                  5820                       # Number of times the LSQ has become full, causing a stall
system.cpu.iew.memOrderViolationEvents            366                       # Number of memory order violations
system.cpu.iew.predictedTakenIncorrect          50245                       # Number of branches that were predicted taken incorrectly
system.cpu.iew.predictedNotTakenIncorrect       276532                       # Number of branches that were predicted not taken incorrectly
system.cpu.iew.branchMispredicts               326777                       # Number of branch mispredicts detected at execute
system.cpu.iew.iewExecutedInsts             113743842                       # Number of executed instructions
system.cpu.iew.iewExecLoadInsts              20042481                       # Number of load instructions executed
system.cpu.iew.iewExecSquashedInsts            791036                       # Number of squashed instructions skipped in execute
system.cpu.iew.exec_swp                             0                       # number of swp insts executed
system.cpu.iew.exec_nop                             0                       # number of nop insts executed
system.cpu.iew.exec_refs                     28783706                       # number of memory reference insts executed
system.cpu.iew.exec_branches                 10765214                       # Number of branches executed
system.cpu.iew.exec_stores                    8741225                       # Number of stores executed
system.cpu.iew.exec_rate                     1.358641                       # Inst execution rate
system.cpu.iew.wb_sent                      113512858                       # cumulative count of insts sent to commit
system.cpu.iew.wb_count                     113316812                       # cumulative count of insts written-back
system.cpu.iew.wb_producers                  84697168                       # num instructions producing a value
system.cpu.iew.wb_consumers                 118282033                       # num instructions consuming a value
system.cpu.iew.wb_rate                       1.353540                       # insts written-back per cycle
system.cpu.iew.wb_fanout                     0.716061                       # average fanout of values written-back
system.cpu.commit.commitSquashedInsts         7487247                       # The number of squashed insts skipped by commit
system.cpu.commit.commitNonSpecStalls              36                       # The number of times commit has been forced to stall to communicate backwards
system.cpu.commit.branchMispredicts            313906                       # The number of times a branch was mispredicted
system.cpu.commit.committed_per_cycle::samples     83046314                       # Number of insts commited each cycle
system.cpu.commit.committed_per_cycle::mean     1.325040                       # Number of insts commited each cycle
system.cpu.commit.committed_per_cycle::stdev     0.862292                       # Number of insts commited each cycle
system.cpu.commit.committed_per_cycle::underflows            0      0.00%      0.00% # Number of insts commited each cycle
system.cpu.commit.committed_per_cycle::0     21764691     26.21%     26.21% # Number of insts commited each cycle
system.cpu.commit.committed_per_cycle::1     12523561     15.08%     41.29% # Number of insts commited each cycle
system.cpu.commit.committed_per_cycle::2     48758062     58.71%    100.00% # Number of insts commited each cycle
system.cpu.commit.committed_per_cycle::overflows            0      0.00%    100.00% # Number of insts commited each cycle
system.cpu.commit.committed_per_cycle::min_value            0                       # Number of insts commited each cycle
system.cpu.commit.committed_per_cycle::max_value            2                       # Number of insts commited each cycle
system.cpu.commit.committed_per_cycle::total     83046314                       # Number of insts commited each cycle
system.cpu.commit.committedInsts             62525833                       # Number of instructions committed
system.cpu.commit.committedOps              110039685                       # Number of ops (including micro ops) committed
system.cpu.commit.swp_count                         0                       # Number of s/w prefetches committed
system.cpu.commit.refs                       27701406                       # Number of memory references committed
system.cpu.commit.loads                      19049882                       # Number of loads committed
system.cpu.commit.membars                           0                       # Number of memory barriers committed
system.cpu.commit.branches                   10575287                       # Number of branches committed
system.cpu.commit.vec_insts                         0                       # Number of committed Vector instructions.
system.cpu.commit.fp_insts                     591928                       # Number of committed floating point instructions.
system.cpu.commit.int_insts                 109906472                       # Number of committed integer instructions.
system.cpu.commit.function_calls               329514                       # Number of function calls committed.
system.cpu.commit.op_class_0::No_OpClass        66156      0.06%      0.06% # Class of committed instruction
system.cpu.commit.op_class_0::IntAlu         81559305     74.12%     74.18% # Class of committed instruction
system.cpu.commit.op_class_0::IntMult          646190      0.59%     74.77% # Class of committed instruction
system.cpu.commit.op_class_0::IntDiv               28      0.00%     74.77% # Class of committed instruction
system.cpu.commit.op_class_0::FloatAdd          65551      0.06%     74.83% # Class of committed instruction
system.cpu.commit.op_class_0::FloatCmp              0      0.00%     74.83% # Class of committed instruction
system.cpu.commit.op_class_0::FloatCvt              0      0.00%     74.83% # Class of committed instruction
system.cpu.commit.op_class_0::FloatMult             0      0.00%     74.83% # Class of committed instruction
system.cpu.commit.op_class_0::FloatMultAcc            0      0.00%     74.83% # Class of committed instruction
system.cpu.commit.op_class_0::FloatDiv              0      0.00%     74.83% # Class of committed instruction
system.cpu.commit.op_class_0::FloatMisc             0      0.00%     74.83% # Class of committed instruction
system.cpu.commit.op_class_0::FloatSqrt             0      0.00%     74.83% # Class of committed instruction
system.cpu.commit.op_class_0::SimdAdd             374      0.00%     74.83% # Class of committed instruction
system.cpu.commit.op_class_0::SimdAddAcc            0      0.00%     74.83% # Class of committed instruction
system.cpu.commit.op_class_0::SimdAlu              94      0.00%     74.83% # Class of committed instruction
system.cpu.commit.op_class_0::SimdCmp               0      0.00%     74.83% # Class of committed instruction
system.cpu.commit.op_class_0::SimdCvt             140      0.00%     74.83% # Class of committed instruction
system.cpu.commit.op_class_0::SimdMisc            255      0.00%     74.83% # Class of committed instruction
system.cpu.commit.op_class_0::SimdMult              0      0.00%     74.83% # Class of committed instruction
system.cpu.commit.op_class_0::SimdMultAcc            0      0.00%     74.83% # Class of committed instruction
system.cpu.commit.op_class_0::SimdShift           186      0.00%     74.83% # Class of committed instruction
system.cpu.commit.op_class_0::SimdShiftAcc            0      0.00%     74.83% # Class of committed instruction
system.cpu.commit.op_class_0::SimdSqrt              0      0.00%     74.83% # Class of committed instruction
system.cpu.commit.op_class_0::SimdFloatAdd            0      0.00%     74.83% # Class of committed instruction
system.cpu.commit.op_class_0::SimdFloatAlu            0      0.00%     74.83% # Class of committed instruction
system.cpu.commit.op_class_0::SimdFloatCmp            0      0.00%     74.83% # Class of committed instruction
system.cpu.commit.op_class_0::SimdFloatCvt            0      0.00%     74.83% # Class of committed instruction
system.cpu.commit.op_class_0::SimdFloatDiv            0      0.00%     74.83% # Class of committed instruction
system.cpu.commit.op_class_0::SimdFloatMisc            0      0.00%     74.83% # Class of committed instruction
system.cpu.commit.op_class_0::SimdFloatMult            0      0.00%     74.83% # Class of committed instruction
system.cpu.commit.op_class_0::SimdFloatMultAcc            0      0.00%     74.83% # Class of committed instruction
system.cpu.commit.op_class_0::SimdFloatSqrt            0      0.00%     74.83% # Class of committed instruction
system.cpu.commit.op_class_0::SimdAes               0      0.00%     74.83% # Class of committed instruction
system.cpu.commit.op_class_0::SimdAesMix            0      0.00%     74.83% # Class of committed instruction
system.cpu.commit.op_class_0::SimdSha1Hash            0      0.00%     74.83% # Class of committed instruction
system.cpu.commit.op_class_0::SimdSha1Hash2            0      0.00%     74.83% # Class of committed instruction
system.cpu.commit.op_class_0::SimdSha256Hash            0      0.00%     74.83% # Class of committed instruction
system.cpu.commit.op_class_0::SimdSha256Hash2            0      0.00%     74.83% # Class of committed instruction
system.cpu.commit.op_class_0::SimdShaSigma2            0      0.00%     74.83% # Class of committed instruction
system.cpu.commit.op_class_0::SimdShaSigma3            0      0.00%     74.83% # Class of committed instruction
system.cpu.commit.op_class_0::MemRead        18787650     17.07%     91.90% # Class of committed instruction
system.cpu.commit.op_class_0::MemWrite        8388953      7.62%     99.52% # Class of committed instruction
system.cpu.commit.op_class_0::FloatMemRead       262232      0.24%     99.76% # Class of committed instruction
system.cpu.commit.op_class_0::FloatMemWrite       262571      0.24%    100.00% # Class of committed instruction
system.cpu.commit.op_class_0::IprAccess             0      0.00%    100.00% # Class of committed instruction
system.cpu.commit.op_class_0::InstPrefetch            0      0.00%    100.00% # Class of committed instruction
system.cpu.commit.op_class_0::total         110039685                       # Class of committed instruction
system.cpu.commit.bw_lim_events              48758062                       # number cycles where commit BW limit reached
system.cpu.rob.rob_reads                    151815184                       # The number of ROB reads
system.cpu.rob.rob_writes                   235687697                       # The number of ROB writes
system.cpu.timesIdled                             452                       # Number of times that the entire CPU went into an idle state and unscheduled itself
system.cpu.idleCycles                           38685                       # Total number of cycles that the CPU has spent unscheduled due to idling
system.cpu.committedInsts                    62525833                       # Number of Instructions Simulated
system.cpu.committedOps                     110039685                       # Number of Ops (including micro ops) Simulated
system.cpu.cpi                               1.338948                       # CPI: Cycles Per Instruction
system.cpu.cpi_total                         1.338948                       # CPI: Total CPI of All Threads
system.cpu.ipc                               0.746855                       # IPC: Instructions Per Cycle
system.cpu.ipc_total                         0.746855                       # IPC: Total IPC of All Threads
system.cpu.int_regfile_reads                174135725                       # number of integer regfile reads
system.cpu.int_regfile_writes                94125480                       # number of integer regfile writes
system.cpu.fp_regfile_reads                    266296                       # number of floating regfile reads
system.cpu.fp_regfile_writes                   329343                       # number of floating regfile writes
system.cpu.cc_regfile_reads                  51506942                       # number of cc regfile reads
system.cpu.cc_regfile_writes                 40475069                       # number of cc regfile writes
system.cpu.misc_regfile_reads                51379146                       # number of misc regfile reads
system.cpu.dcache.tags.pwrStateResidencyTicks::UNDEFINED  41859414500                       # Cumulative time (in ticks) in various power states
system.cpu.dcache.tags.tagsinuse          1018.022394                       # Cycle average of tags in use
system.cpu.dcache.tags.total_refs            26463342                       # Total number of references to valid blocks.
system.cpu.dcache.tags.sampled_refs             14312                       # Sample count of references to valid blocks.
system.cpu.dcache.tags.avg_refs           1849.031722                       # Average number of references to valid blocks.
system.cpu.dcache.tags.warmup_cycle            170000                       # Cycle when the warmup percentage was hit.
system.cpu.dcache.tags.occ_blocks::.cpu.data  1018.022394                       # Average occupied blocks per requestor
system.cpu.dcache.tags.occ_percent::.cpu.data     0.994162                       # Average percentage of cache occupancy
system.cpu.dcache.tags.occ_percent::total     0.994162                       # Average percentage of cache occupancy
system.cpu.dcache.tags.occ_task_id_blocks::1024         1024                       # Occupied blocks per task id
system.cpu.dcache.tags.age_task_id_blocks_1024::0           65                       # Occupied blocks per task id
system.cpu.dcache.tags.age_task_id_blocks_1024::1          677                       # Occupied blocks per task id
system.cpu.dcache.tags.age_task_id_blocks_1024::2          270                       # Occupied blocks per task id
system.cpu.dcache.tags.age_task_id_blocks_1024::3            9                       # Occupied blocks per task id
system.cpu.dcache.tags.age_task_id_blocks_1024::4            3                       # Occupied blocks per task id
system.cpu.dcache.tags.occ_task_id_percent::1024            1                       # Percentage of cache occupancy per task id
system.cpu.dcache.tags.tag_accesses         211723352                       # Number of tag accesses
system.cpu.dcache.tags.data_accesses        211723352                       # Number of data accesses
system.cpu.dcache.pwrStateResidencyTicks::UNDEFINED  41859414500                       # Cumulative time (in ticks) in various power states
system.cpu.dcache.ReadReq_hits::.cpu.data     17806483                       # number of ReadReq hits
system.cpu.dcache.ReadReq_hits::total        17806483                       # number of ReadReq hits
system.cpu.dcache.WriteReq_hits::.cpu.data      8641992                       # number of WriteReq hits
system.cpu.dcache.WriteReq_hits::total        8641992                       # number of WriteReq hits
system.cpu.dcache.demand_hits::.cpu.data     26448475                       # number of demand (read+write) hits
system.cpu.dcache.demand_hits::total         26448475                       # number of demand (read+write) hits
system.cpu.dcache.overall_hits::.cpu.data     26448475                       # number of overall hits
system.cpu.dcache.overall_hits::total        26448475                       # number of overall hits
system.cpu.dcache.ReadReq_misses::.cpu.data         5623                       # number of ReadReq misses
system.cpu.dcache.ReadReq_misses::total          5623                       # number of ReadReq misses
system.cpu.dcache.WriteReq_misses::.cpu.data         9532                       # number of WriteReq misses
system.cpu.dcache.WriteReq_misses::total         9532                       # number of WriteReq misses
system.cpu.dcache.demand_misses::.cpu.data        15155                       # number of demand (read+write) misses
system.cpu.dcache.demand_misses::total          15155                       # number of demand (read+write) misses
system.cpu.dcache.overall_misses::.cpu.data        15155                       # number of overall misses
system.cpu.dcache.overall_misses::total         15155                       # number of overall misses
system.cpu.dcache.ReadReq_miss_latency::.cpu.data    256076500                       # number of ReadReq miss cycles
system.cpu.dcache.ReadReq_miss_latency::total    256076500                       # number of ReadReq miss cycles
system.cpu.dcache.WriteReq_miss_latency::.cpu.data    818680499                       # number of WriteReq miss cycles
system.cpu.dcache.WriteReq_miss_latency::total    818680499                       # number of WriteReq miss cycles
system.cpu.dcache.demand_miss_latency::.cpu.data   1074756999                       # number of demand (read+write) miss cycles
system.cpu.dcache.demand_miss_latency::total   1074756999                       # number of demand (read+write) miss cycles
system.cpu.dcache.overall_miss_latency::.cpu.data   1074756999                       # number of overall miss cycles
system.cpu.dcache.overall_miss_latency::total   1074756999                       # number of overall miss cycles
system.cpu.dcache.ReadReq_accesses::.cpu.data     17812106                       # number of ReadReq accesses(hits+misses)
system.cpu.dcache.ReadReq_accesses::total     17812106                       # number of ReadReq accesses(hits+misses)
system.cpu.dcache.WriteReq_accesses::.cpu.data      8651524                       # number of WriteReq accesses(hits+misses)
system.cpu.dcache.WriteReq_accesses::total      8651524                       # number of WriteReq accesses(hits+misses)
system.cpu.dcache.demand_accesses::.cpu.data     26463630                       # number of demand (read+write) accesses
system.cpu.dcache.demand_accesses::total     26463630                       # number of demand (read+write) accesses
system.cpu.dcache.overall_accesses::.cpu.data     26463630                       # number of overall (read+write) accesses
system.cpu.dcache.overall_accesses::total     26463630                       # number of overall (read+write) accesses
system.cpu.dcache.ReadReq_miss_rate::.cpu.data     0.000316                       # miss rate for ReadReq accesses
system.cpu.dcache.ReadReq_miss_rate::total     0.000316                       # miss rate for ReadReq accesses
system.cpu.dcache.WriteReq_miss_rate::.cpu.data     0.001102                       # miss rate for WriteReq accesses
system.cpu.dcache.WriteReq_miss_rate::total     0.001102                       # miss rate for WriteReq accesses
system.cpu.dcache.demand_miss_rate::.cpu.data     0.000573                       # miss rate for demand accesses
system.cpu.dcache.demand_miss_rate::total     0.000573                       # miss rate for demand accesses
system.cpu.dcache.overall_miss_rate::.cpu.data     0.000573                       # miss rate for overall accesses
system.cpu.dcache.overall_miss_rate::total     0.000573                       # miss rate for overall accesses
system.cpu.dcache.ReadReq_avg_miss_latency::.cpu.data 45540.903432                       # average ReadReq miss latency
system.cpu.dcache.ReadReq_avg_miss_latency::total 45540.903432                       # average ReadReq miss latency
system.cpu.dcache.WriteReq_avg_miss_latency::.cpu.data 85887.589068                       # average WriteReq miss latency
system.cpu.dcache.WriteReq_avg_miss_latency::total 85887.589068                       # average WriteReq miss latency
system.cpu.dcache.demand_avg_miss_latency::.cpu.data 70917.650874                       # average overall miss latency
[...]
system.l3cache.tags.occ_percent::.cpu.data     0.139286                       # Average percentage of cache occupancy
system.l3cache.tags.occ_percent::total       0.159404                       # Average percentage of cache occupancy
system.l3cache.tags.occ_task_id_blocks::1024         9528                       # Occupied blocks per task id
system.l3cache.tags.age_task_id_blocks_1024::0           69                       # Occupied blocks per task id
system.l3cache.tags.age_task_id_blocks_1024::1           17                       # Occupied blocks per task id
system.l3cache.tags.age_task_id_blocks_1024::2          197                       # Occupied blocks per task id
system.l3cache.tags.age_task_id_blocks_1024::3         1975                       # Occupied blocks per task id
system.l3cache.tags.age_task_id_blocks_1024::4         7270                       # Occupied blocks per task id
system.l3cache.tags.occ_task_id_percent::1024     0.290771                       # Percentage of cache occupancy per task id
system.l3cache.tags.tag_accesses               390008                       # Number of tag accesses
system.l3cache.tags.data_accesses              390008                       # Number of data accesses
system.l3cache.pwrStateResidencyTicks::UNDEFINED  41859414500                       # Cumulative time (in ticks) in various power states
system.l3cache.WritebackDirty_hits::.writebacks         9373                       # number of WritebackDirty hits
system.l3cache.WritebackDirty_hits::total         9373                       # number of WritebackDirty hits
system.l3cache.ReadExReq_hits::.cpu.data          298                       # number of ReadExReq hits
system.l3cache.ReadExReq_hits::total              298                       # number of ReadExReq hits
system.l3cache.ReadSharedReq_hits::.cpu.inst           11                       # number of ReadSharedReq hits
system.l3cache.ReadSharedReq_hits::.cpu.data         4570                       # number of ReadSharedReq hits
system.l3cache.ReadSharedReq_hits::total         4581                       # number of ReadSharedReq hits
system.l3cache.demand_hits::.cpu.inst              11                       # number of demand (read+write) hits
system.l3cache.demand_hits::.cpu.data            4868                       # number of demand (read+write) hits
system.l3cache.demand_hits::total                4879                       # number of demand (read+write) hits
system.l3cache.overall_hits::.cpu.inst             11                       # number of overall hits
system.l3cache.overall_hits::.cpu.data           4868                       # number of overall hits
system.l3cache.overall_hits::total               4879                       # number of overall hits
system.l3cache.ReadExReq_misses::.cpu.data         8489                       # number of ReadExReq misses
system.l3cache.ReadExReq_misses::total           8489                       # number of ReadExReq misses
system.l3cache.ReadSharedReq_misses::.cpu.inst          756                       # number of ReadSharedReq misses
system.l3cache.ReadSharedReq_misses::.cpu.data          283                       # number of ReadSharedReq misses
system.l3cache.ReadSharedReq_misses::total         1039                       # number of ReadSharedReq misses
system.l3cache.demand_misses::.cpu.inst           756                       # number of demand (read+write) misses
system.l3cache.demand_misses::.cpu.data          8772                       # number of demand (read+write) misses
system.l3cache.demand_misses::total              9528                       # number of demand (read+write) misses
system.l3cache.overall_misses::.cpu.inst          756                       # number of overall misses
system.l3cache.overall_misses::.cpu.data         8772                       # number of overall misses
system.l3cache.overall_misses::total             9528                       # number of overall misses
system.l3cache.ReadExReq_miss_latency::.cpu.data    687920000                       # number of ReadExReq miss cycles
system.l3cache.ReadExReq_miss_latency::total    687920000                       # number of ReadExReq miss cycles
system.l3cache.ReadSharedReq_miss_latency::.cpu.inst     57374000                       # number of ReadSharedReq miss cycles
system.l3cache.ReadSharedReq_miss_latency::.cpu.data     43578500                       # number of ReadSharedReq miss cycles
system.l3cache.ReadSharedReq_miss_latency::total    100952500                       # number of ReadSharedReq miss cycles
system.l3cache.demand_miss_latency::.cpu.inst     57374000                       # number of demand (read+write) miss cycles
system.l3cache.demand_miss_latency::.cpu.data    731498500                       # number of demand (read+write) miss cycles
system.l3cache.demand_miss_latency::total    788872500                       # number of demand (read+write) miss cycles
system.l3cache.overall_miss_latency::.cpu.inst     57374000                       # number of overall miss cycles
system.l3cache.overall_miss_latency::.cpu.data    731498500                       # number of overall miss cycles
system.l3cache.overall_miss_latency::total    788872500                       # number of overall miss cycles
system.l3cache.WritebackDirty_accesses::.writebacks         9373                       # number of WritebackDirty accesses(hits+misses)
system.l3cache.WritebackDirty_accesses::total         9373                       # number of WritebackDirty accesses(hits+misses)
system.l3cache.ReadExReq_accesses::.cpu.data         8787                       # number of ReadExReq accesses(hits+misses)
system.l3cache.ReadExReq_accesses::total         8787                       # number of ReadExReq accesses(hits+misses)
system.l3cache.ReadSharedReq_accesses::.cpu.inst          767                       # number of ReadSharedReq accesses(hits+misses)
system.l3cache.ReadSharedReq_accesses::.cpu.data         4853                       # number of ReadSharedReq accesses(hits+misses)
system.l3cache.ReadSharedReq_accesses::total         5620                       # number of ReadSharedReq accesses(hits+misses)
system.l3cache.demand_accesses::.cpu.inst          767                       # number of demand (read+write) accesses
system.l3cache.demand_accesses::.cpu.data        13640                       # number of demand (read+write) accesses
system.l3cache.demand_accesses::total           14407                       # number of demand (read+write) accesses
system.l3cache.overall_accesses::.cpu.inst          767                       # number of overall (read+write) accesses
system.l3cache.overall_accesses::.cpu.data        13640                       # number of overall (read+write) accesses
system.l3cache.overall_accesses::total          14407                       # number of overall (read+write) accesses
system.l3cache.ReadExReq_miss_rate::.cpu.data     0.966086                       # miss rate for ReadExReq accesses
system.l3cache.ReadExReq_miss_rate::total     0.966086                       # miss rate for ReadExReq accesses
system.l3cache.ReadSharedReq_miss_rate::.cpu.inst     0.985658                       # miss rate for ReadSharedReq accesses
system.l3cache.ReadSharedReq_miss_rate::.cpu.data     0.058314                       # miss rate for ReadSharedReq accesses
system.l3cache.ReadSharedReq_miss_rate::total     0.184875                       # miss rate for ReadSharedReq accesses
system.l3cache.demand_miss_rate::.cpu.inst     0.985658                       # miss rate for demand accesses
system.l3cache.demand_miss_rate::.cpu.data     0.643109                       # miss rate for demand accesses
system.l3cache.demand_miss_rate::total       0.661345                       # miss rate for demand accesses
system.l3cache.overall_miss_rate::.cpu.inst     0.985658                       # miss rate for overall accesses
system.l3cache.overall_miss_rate::.cpu.data     0.643109                       # miss rate for overall accesses
system.l3cache.overall_miss_rate::total      0.661345                       # miss rate for overall accesses
system.l3cache.ReadExReq_avg_miss_latency::.cpu.data 81036.635646                       # average ReadExReq miss latency
system.l3cache.ReadExReq_avg_miss_latency::total 81036.635646                       # average ReadExReq miss latency
system.l3cache.ReadSharedReq_avg_miss_latency::.cpu.inst 75891.534392                       # average ReadSharedReq miss latency
system.l3cache.ReadSharedReq_avg_miss_latency::.cpu.data 153987.632509                       # average ReadSharedReq miss latency
system.l3cache.ReadSharedReq_avg_miss_latency::total 97163.137632                       # average ReadSharedReq miss latency
system.l3cache.demand_avg_miss_latency::.cpu.inst 75891.534392                       # average overall miss latency
system.l3cache.demand_avg_miss_latency::.cpu.data 83390.161879                       # average overall miss latency
system.l3cache.demand_avg_miss_latency::total 82795.182620                       # average overall miss latency
system.l3cache.overall_avg_miss_latency::.cpu.inst 75891.534392                       # average overall miss latency
system.l3cache.overall_avg_miss_latency::.cpu.data 83390.161879                       # average overall miss latency
system.l3cache.overall_avg_miss_latency::total 82795.182620                       # average overall miss latency
system.l3cache.blocked_cycles::no_mshrs             0                       # number of cycles access was blocked
system.l3cache.blocked_cycles::no_targets            0                       # number of cycles access was blocked
system.l3cache.blocked::no_mshrs                    0                       # number of cycles access was blocked
system.l3cache.blocked::no_targets                  0                       # number of cycles access was blocked
system.l3cache.avg_blocked_cycles::no_mshrs          nan                       # average number of cycles each access was blocked
system.l3cache.avg_blocked_cycles::no_targets          nan                       # average number of cycles each access was blocked
system.l3cache.ReadExReq_mshr_misses::.cpu.data         8489                       # number of ReadExReq MSHR misses
system.l3cache.ReadExReq_mshr_misses::total         8489                       # number of ReadExReq MSHR misses
system.l3cache.ReadSharedReq_mshr_misses::.cpu.inst          756                       # number of ReadSharedReq MSHR misses
system.l3cache.ReadSharedReq_mshr_misses::.cpu.data          283                       # number of ReadSharedReq MSHR misses
system.l3cache.ReadSharedReq_mshr_misses::total         1039                       # number of ReadSharedReq MSHR misses
system.l3cache.demand_mshr_misses::.cpu.inst          756                       # number of demand (read+write) MSHR misses
system.l3cache.demand_mshr_misses::.cpu.data         8772                       # number of demand (read+write) MSHR misses
system.l3cache.demand_mshr_misses::total         9528                       # number of demand (read+write) MSHR misses
system.l3cache.overall_mshr_misses::.cpu.inst          756                       # number of overall MSHR misses
system.l3cache.overall_mshr_misses::.cpu.data         8772                       # number of overall MSHR misses
system.l3cache.overall_mshr_misses::total         9528                       # number of overall MSHR misses
system.l3cache.ReadExReq_mshr_miss_latency::.cpu.data    670942000                       # number of ReadExReq MSHR miss cycles
system.l3cache.ReadExReq_mshr_miss_latency::total    670942000                       # number of ReadExReq MSHR miss cycles
system.l3cache.ReadSharedReq_mshr_miss_latency::.cpu.inst     55862000                       # number of ReadSharedReq MSHR miss cycles
system.l3cache.ReadSharedReq_mshr_miss_latency::.cpu.data     43012500                       # number of ReadSharedReq MSHR miss cycles
system.l3cache.ReadSharedReq_mshr_miss_latency::total     98874500                       # number of ReadSharedReq MSHR miss cycles
system.l3cache.demand_mshr_miss_latency::.cpu.inst     55862000                       # number of demand (read+write) MSHR miss cycles
system.l3cache.demand_mshr_miss_latency::.cpu.data    713954500                       # number of demand (read+write) MSHR miss cycles
system.l3cache.demand_mshr_miss_latency::total    769816500                       # number of demand (read+write) MSHR miss cycles
system.l3cache.overall_mshr_miss_latency::.cpu.inst     55862000                       # number of overall MSHR miss cycles
system.l3cache.overall_mshr_miss_latency::.cpu.data    713954500                       # number of overall MSHR miss cycles
system.l3cache.overall_mshr_miss_latency::total    769816500                       # number of overall MSHR miss cycles
system.l3cache.ReadExReq_mshr_miss_rate::.cpu.data     0.966086                       # mshr miss rate for ReadExReq accesses
system.l3cache.ReadExReq_mshr_miss_rate::total     0.966086                       # mshr miss rate for ReadExReq accesses
system.l3cache.ReadSharedReq_mshr_miss_rate::.cpu.inst     0.985658                       # mshr miss rate for ReadSharedReq accesses
system.l3cache.ReadSharedReq_mshr_miss_rate::.cpu.data     0.058314                       # mshr miss rate for ReadSharedReq accesses
system.l3cache.ReadSharedReq_mshr_miss_rate::total     0.184875                       # mshr miss rate for ReadSharedReq accesses
system.l3cache.demand_mshr_miss_rate::.cpu.inst     0.985658                       # mshr miss rate for demand accesses
system.l3cache.demand_mshr_miss_rate::.cpu.data     0.643109                       # mshr miss rate for demand accesses
system.l3cache.demand_mshr_miss_rate::total     0.661345                       # mshr miss rate for demand accesses
system.l3cache.overall_mshr_miss_rate::.cpu.inst     0.985658                       # mshr miss rate for overall accesses
system.l3cache.overall_mshr_miss_rate::.cpu.data     0.643109                       # mshr miss rate for overall accesses
system.l3cache.overall_mshr_miss_rate::total     0.661345                       # mshr miss rate for overall accesses
system.l3cache.ReadExReq_avg_mshr_miss_latency::.cpu.data 79036.635646                       # average ReadExReq mshr miss latency
system.l3cache.ReadExReq_avg_mshr_miss_latency::total 79036.635646                       # average ReadExReq mshr miss latency
system.l3cache.ReadSharedReq_avg_mshr_miss_latency::.cpu.inst 73891.534392                       # average ReadSharedReq mshr miss latency
system.l3cache.ReadSharedReq_avg_mshr_miss_latency::.cpu.data 151987.632509                       # average ReadSharedReq mshr miss latency
system.l3cache.ReadSharedReq_avg_mshr_miss_latency::total 95163.137632                       # average ReadSharedReq mshr miss latency
system.l3cache.demand_avg_mshr_miss_latency::.cpu.inst 73891.534392                       # average overall mshr miss latency
system.l3cache.demand_avg_mshr_miss_latency::.cpu.data 81390.161879                       # average overall mshr miss latency
system.l3cache.demand_avg_mshr_miss_latency::total 80795.182620                       # average overall mshr miss latency
system.l3cache.overall_avg_mshr_miss_latency::.cpu.inst 73891.534392                       # average overall mshr miss latency
system.l3cache.overall_avg_mshr_miss_latency::.cpu.data 81390.161879                       # average overall mshr miss latency
system.l3cache.overall_avg_mshr_miss_latency::total 80795.182620                       # average overall mshr miss latency
system.l3cache.replacements                         0                       # number of replacements
system.membus.snoop_filter.tot_requests          9528                       # Total number of requests made to the snoop filter.
system.membus.snoop_filter.hit_single_requests            0                       # Number of requests hitting in the snoop filter with a single holder of the requested data.
system.membus.snoop_filter.hit_multi_requests            0                       # Number of requests hitting in the snoop filter with multiple (>1) holders of the requested data.
system.membus.snoop_filter.tot_snoops               0                       # Total number of snoops made to the snoop filter.
system.membus.snoop_filter.hit_single_snoops            0                       # Number of snoops hitting in the snoop filter with a single holder of the requested data.
system.membus.snoop_filter.hit_multi_snoops            0                       # Number of snoops hitting in the snoop filter with multiple (>1) holders of the requested data.
system.membus.pwrStateResidencyTicks::UNDEFINED  41859414500                       # Cumulative time (in ticks) in various power states
system.membus.trans_dist::ReadResp               1039                       # Transaction distribution
system.membus.trans_dist::ReadExReq              8489                       # Transaction distribution
system.membus.trans_dist::ReadExResp             8489                       # Transaction distribution
system.membus.trans_dist::ReadSharedReq          1039                       # Transaction distribution
system.membus.pkt_count_system.l3cache.mem_side::system.mem_ctrl.port        19056                       # Packet count per connected master and slave (bytes)
system.membus.pkt_count_system.l3cache.mem_side::total        19056                       # Packet count per connected master and slave (bytes)
system.membus.pkt_count::total                  19056                       # Packet count per connected master and slave (bytes)
system.membus.pkt_size_system.l3cache.mem_side::system.mem_ctrl.port       609792                       # Cumulative packet size per connected master and slave (bytes)
system.membus.pkt_size_system.l3cache.mem_side::total       609792                       # Cumulative packet size per connected master and slave (bytes)
system.membus.pkt_size::total                  609792                       # Cumulative packet size per connected master and slave (bytes)
system.membus.snoops                                0                       # Total snoops (count)
system.membus.snoopTraffic                          0                       # Total snoop traffic (bytes)
system.membus.snoop_fanout::samples              9528                       # Request fanout histogram
system.membus.snoop_fanout::mean                    0                       # Request fanout histogram
system.membus.snoop_fanout::stdev                   0                       # Request fanout histogram
system.membus.snoop_fanout::underflows              0      0.00%      0.00% # Request fanout histogram
system.membus.snoop_fanout::0                    9528    100.00%    100.00% # Request fanout histogram
system.membus.snoop_fanout::1                       0      0.00%    100.00% # Request fanout histogram
system.membus.snoop_fanout::overflows               0      0.00%    100.00% # Request fanout histogram
system.membus.snoop_fanout::min_value               0                       # Request fanout histogram
system.membus.snoop_fanout::max_value               0                       # Request fanout histogram
system.membus.snoop_fanout::total                9528                       # Request fanout histogram
system.membus.reqLayer0.occupancy             4764000                       # Layer occupancy (ticks)
system.membus.reqLayer0.utilization               0.0                       # Layer utilization (%)
system.membus.respLayer0.occupancy           24852250                       # Layer occupancy (ticks)
system.membus.respLayer0.utilization              0.1                       # Layer utilization (%)

---------- End Simulation Statistics   ----------