
---------- Begin Simulation Statistics ----------
sim_seconds                                  0.000046                       # Number of seconds simulated
sim_ticks                                    45596500                       # Number of ticks simulated
final_tick                                   45596500                       # Number of ticks from beginning of simulation (restored from checkpoints and never reset)
sim_freq                                 1000000000000                       # Frequency of simulated ticks
host_inst_rate                                  36371                       # Simulator instruction rate (inst/s)
host_op_rate                                    73379                       # Simulator op (including micro ops) rate (op/s)
host_tick_rate                              214279017                       # Simulator tick rate (ticks/s)
host_mem_usage                                 655152                       # Number of bytes of host memory used
host_seconds                                     0.21                       # Real time elapsed on the host
sim_insts                                        7739                       # Number of instructions simulated
sim_ops                                         15614                       # Number of ops (including micro ops) simulated
system.clk_domain.voltage_domain.voltage            1                       # Voltage in Volts
system.clk_domain.clock                           500                       # Clock period in ticks
system.mem_ctrl.pwrStateResidencyTicks::UNDEFINED     45596500                       # Cumulative time (in ticks) in various power states
system.mem_ctrl.bytes_read::.cpu.inst           32640                       # Number of bytes read from this memory
system.mem_ctrl.bytes_read::.cpu.data           16064                       # Number of bytes read from this memory
system.mem_ctrl.bytes_read::total               48704                       # Number of bytes read from this memory
system.mem_ctrl.bytes_inst_read::.cpu.inst        32640                       # Number of instructions bytes read from this memory
system.mem_ctrl.bytes_inst_read::total          32640                       # Number of instructions bytes read from this memory
system.mem_ctrl.num_reads::.cpu.inst              510                       # Number of read requests responded to by this memory
system.mem_ctrl.num_reads::.cpu.data              251                       # Number of read requests responded to by this memory
system.mem_ctrl.num_reads::total                  761                       # Number of read requests responded to by this memory
system.mem_ctrl.bw_read::.cpu.inst          715844418                       # Total read bandwidth from this memory (bytes/s)
system.mem_ctrl.bw_read::.cpu.data          352307743                       # Total read bandwidth from this memory (bytes/s)
system.mem_ctrl.bw_read::total             1068152161                       # Total read bandwidth from this memory (bytes/s)
system.mem_ctrl.bw_inst_read::.cpu.inst     715844418                       # Instruction read bandwidth from this memory (bytes/s)
system.mem_ctrl.bw_inst_read::total         715844418                       # Instruction read bandwidth from this memory (bytes/s)
system.mem_ctrl.bw_total::.cpu.inst         715844418                       # Total bandwidth to/from this memory (bytes/s)
system.mem_ctrl.bw_total::.cpu.data         352307743                       # Total bandwidth to/from this memory (bytes/s)
system.mem_ctrl.bw_total::total            1068152161                       # Total bandwidth to/from this memory (bytes/s)
system.mem_ctrl.avgPriority_.cpu.inst::samples       510.00                       # Average QoS priority value for accepted requests
system.mem_ctrl.avgPriority_.cpu.data::samples       251.00                       # Average QoS priority value for accepted requests
system.mem_ctrl.priorityMinLatency       0.000000018750                       # per QoS priority minimum request to response latency (s)
system.mem_ctrl.priorityMaxLatency       0.000000580750                       # per QoS priority maximum request to response latency (s)
system.mem_ctrl.numReadWriteTurnArounds             0                       # Number of turnarounds from READ to WRITE
system.mem_ctrl.numWriteReadTurnArounds             0                       # Number of turnarounds from WRITE to READ
system.mem_ctrl.numStayReadState                 1506                       # Number of times bus staying in READ state
system.mem_ctrl.numStayWriteState                   0                       # Number of times bus staying in WRITE state
system.mem_ctrl.readReqs                          761                       # Number of read requests accepted
system.mem_ctrl.writeReqs                           0                       # Number of write requests accepted
system.mem_ctrl.readBursts                        761                       # Number of DRAM read bursts, including those serviced by the write queue
system.mem_ctrl.writeBursts                         0                       # Number of DRAM write bursts, including those merged in the write queue
system.mem_ctrl.bytesReadDRAM                   48704                       # Total number of bytes read from DRAM
system.mem_ctrl.bytesReadWrQ                        0                       # Total number of bytes read from write queue
system.mem_ctrl.bytesWritten                        0                       # Total number of bytes written to DRAM
system.mem_ctrl.bytesReadSys                    48704                       # Total read bytes from the system interface side
system.mem_ctrl.bytesWrittenSys                     0                       # Total written bytes from the system interface side
system.mem_ctrl.servicedByWrQ                       0                       # Number of DRAM read bursts serviced by the write queue
system.mem_ctrl.mergedWrBursts                      0                       # Number of DRAM write bursts merged with an existing one
system.mem_ctrl.neitherReadNorWriteReqs             0                       # Number of requests that are neither read nor write
system.mem_ctrl.perBankRdBursts::0                 99                       # Per bank write bursts
system.mem_ctrl.perBankRdBursts::1                 26                       # Per bank write bursts
system.mem_ctrl.perBankRdBursts::2                 31                       # Per bank write bursts
system.mem_ctrl.perBankRdBursts::3                 13                       # Per bank write bursts
system.mem_ctrl.perBankRdBursts::4                 22                       # Per bank write bursts
system.mem_ctrl.perBankRdBursts::5                 12                       # Per bank write bursts
system.mem_ctrl.perBankRdBursts::6                 68                       # Per bank write bursts
system.mem_ctrl.perBankRdBursts::7                 34                       # Per bank write bursts
system.mem_ctrl.perBankRdBursts::8                  4                       # Per bank write bursts
system.mem_ctrl.perBankRdBursts::9                 30                       # Per bank write bursts
system.mem_ctrl.perBankRdBursts::10               113                       # Per bank write bursts
system.mem_ctrl.perBankRdBursts::11                60                       # Per bank write bursts
system.mem_ctrl.perBankRdBursts::12                43                       # Per bank write bursts
system.mem_ctrl.perBankRdBursts::13                65                       # Per bank write bursts
system.mem_ctrl.perBankRdBursts::14                83                       # Per bank write bursts
system.mem_ctrl.perBankRdBursts::15                58                       # Per bank write bursts
system.mem_ctrl.perBankWrBursts::0                  0                       # Per bank write bursts
system.mem_ctrl.perBankWrBursts::1                  0                       # Per bank write bursts
system.mem_ctrl.perBankWrBursts::2                  0                       # Per bank write bursts
system.mem_ctrl.perBankWrBursts::3                  0                       # Per bank write bursts
system.mem_ctrl.perBankWrBursts::4                  0                       # Per bank write bursts
system.mem_ctrl.perBankWrBursts::5                  0                       # Per bank write bursts
system.mem_ctrl.perBankWrBursts::6                  0                       # Per bank write bursts
system.mem_ctrl.perBankWrBursts::7                  0                       # Per bank write bursts
system.mem_ctrl.perBankWrBursts::8                  0                       # Per bank write bursts
system.mem_ctrl.perBankWrBursts::9                  0                       # Per bank write bursts
system.mem_ctrl.perBankWrBursts::10                 0                       # Per bank write bursts
system.mem_ctrl.perBankWrBursts::11                 0                       # Per bank write bursts
system.mem_ctrl.perBankWrBursts::12                 0                       # Per bank write bursts
system.mem_ctrl.perBankWrBursts::13                 0                       # Per bank write bursts
system.mem_ctrl.perBankWrBursts::14                 0                       # Per bank write bursts
system.mem_ctrl.perBankWrBursts::15                 0                       # Per bank write bursts
system.mem_ctrl.numRdRetry                          0                       # Number of times read queue was full causing retry
system.mem_ctrl.numWrRetry                          0                       # Number of times write queue was full causing retry
system.mem_ctrl.totGap                       45504500                       # Total gap between requests
system.mem_ctrl.readPktSize::0                      0                       # Read request sizes (log2)
system.mem_ctrl.readPktSize::1                      0                       # Read request sizes (log2)
system.mem_ctrl.readPktSize::2                      0                       # Read request sizes (log2)
system.mem_ctrl.readPktSize::3                      0                       # Read request sizes (log2)
system.mem_ctrl.readPktSize::4                      0                       # Read request sizes (log2)
system.mem_ctrl.readPktSize::5                      0                       # Read request sizes (log2)
system.mem_ctrl.readPktSize::6                    761                       # Read request sizes (log2)
system.mem_ctrl.writePktSize::0                     0                       # Write request sizes (log2)
system.mem_ctrl.writePktSize::1                     0                       # Write request sizes (log2)
system.mem_ctrl.writePktSize::2                     0                       # Write request sizes (log2)
system.mem_ctrl.writePktSize::3                     0                       # Write request sizes (log2)
system.mem_ctrl.writePktSize::4                     0                       # Write request sizes (log2)
system.mem_ctrl.writePktSize::5                     0                       # Write request sizes (log2)
system.mem_ctrl.writePktSize::6                     0                       # Write request sizes (log2)
system.mem_ctrl.rdQLenPdf::0                      489                       # What read queue length does an incoming req see
system.mem_ctrl.rdQLenPdf::1                      212                       # What read queue length does an incoming req see
system.mem_ctrl.rdQLenPdf::2                       51                       # What read queue length does an incoming req see
system.mem_ctrl.rdQLenPdf::3                        8                       # What read queue length does an incoming req see
system.mem_ctrl.rdQLenPdf::4                        1                       # What read queue length does an incoming req see
system.mem_ctrl.rdQLenPdf::5                        0                       # What read queue length does an incoming req see
system.mem_ctrl.rdQLenPdf::6                        0                       # What read queue length does an incoming req see
system.mem_ctrl.rdQLenPdf::7                        0                       # What read queue length does an incoming req see
system.mem_ctrl.rdQLenPdf::8                        0                       # What read queue length does an incoming req see
system.mem_ctrl.rdQLenPdf::9                        0                       # What read queue length does an incoming req see
system.mem_ctrl.rdQLenPdf::10                       0                       # What read queue length does an incoming req see
system.mem_ctrl.rdQLenPdf::11                       0                       # What read queue length does an incoming req see
system.mem_ctrl.rdQLenPdf::12                       0                       # What read queue length does an incoming req see
system.mem_ctrl.rdQLenPdf::13                       0                       # What read queue length does an incoming req see
system.mem_ctrl.rdQLenPdf::14                       0                       # What read queue length does an incoming req see
system.mem_ctrl.rdQLenPdf::15                       0                       # What read queue length does an incoming req see
system.mem_ctrl.rdQLenPdf::16                       0                       # What read queue length does an incoming req see
system.mem_ctrl.rdQLenPdf::17                       0                       # What read queue length does an incoming req see
system.mem_ctrl.rdQLenPdf::18                       0                       # What read queue length does an incoming req see
system.mem_ctrl.rdQLenPdf::19                       0                       # What read queue length does an incoming req see
system.mem_ctrl.rdQLenPdf::20                       0                       # What read queue length does an incoming req see
system.mem_ctrl.rdQLenPdf::21                       0                       # What read queue length does an incoming req see
system.mem_ctrl.rdQLenPdf::22                       0                       # What read queue length does an incoming req see
system.mem_ctrl.rdQLenPdf::23                       0                       # What read queue length does an incoming req see
system.mem_ctrl.rdQLenPdf::24                       0                       # What read queue length does an incoming req see
system.mem_ctrl.rdQLenPdf::25                       0                       # What read queue length does an incoming req see
system.mem_ctrl.rdQLenPdf::26                       0                       # What read queue length does an incoming req see
system.mem_ctrl.rdQLenPdf::27                       0                       # What read queue length does an incoming req see
system.mem_ctrl.rdQLenPdf::28                       0                       # What read queue length does an incoming req see
system.mem_ctrl.rdQLenPdf::29                       0                       # What read queue length does an incoming req see
system.mem_ctrl.rdQLenPdf::30                       0                       # What read queue length does an incoming req see
system.mem_ctrl.rdQLenPdf::31                       0                       # What read queue length does an incoming req see
system.mem_ctrl.wrQLenPdf::0                        0                       # What write queue length does an incoming req see
system.mem_ctrl.wrQLenPdf::1                        0                       # What write queue length does an incoming req see
system.mem_ctrl.wrQLenPdf::2                        0                       # What write queue length does an incoming req see
system.mem_ctrl.wrQLenPdf::3                        0                       # What write queue length does an incoming req see
system.mem_ctrl.wrQLenPdf::4                        0                       # What write queue length does an incoming req see
system.mem_ctrl.wrQLenPdf::5                        0                       # What write queue length does an incoming req see
system.mem_ctrl.wrQLenPdf::6                        0                       # What write queue length does an incoming req see
system.mem_ctrl.wrQLenPdf::7                        0                       # What write queue length does an incoming req see
system.mem_ctrl.wrQLenPdf::8                        0                       # What write queue length does an incoming req see
system.mem_ctrl.wrQLenPdf::9                        0                       # What write queue length does an incoming req see
system.mem_ctrl.wrQLenPdf::10                       0                       # What write queue length does an incoming req see
system.mem_ctrl.wrQLenPdf::11                       0                       # What write queue length does an incoming req see
system.mem_ctrl.wrQLenPdf::12                       0                       # What write queue length does an incoming req see
system.mem_ctrl.wrQLenPdf::13                       0                       # What write queue length does an incoming req see
system.mem_ctrl.wrQLenPdf::14                       0                       # What write queue length does an incoming req see
system.mem_ctrl.wrQLenPdf::15                       0                       # What write queue length does an incoming req see
system.mem_ctrl.wrQLenPdf::16                       0                       # What write queue length does an incoming req see
system.mem_ctrl.wrQLenPdf::17                       0                       # What write queue length does an incoming req see
system.mem_ctrl.wrQLenPdf::18                       0                       # What write queue length does an incoming req see
system.mem_ctrl.wrQLenPdf::19                       0                       # What write queue length does an incoming req see
system.mem_ctrl.wrQLenPdf::20                       0                       # What write queue length does an incoming req see
system.mem_ctrl.wrQLenPdf::21                       0                       # What write queue length does an incoming req see
system.mem_ctrl.wrQLenPdf::22                       0                       # What write queue length does an incoming req see
system.mem_ctrl.wrQLenPdf::23                       0                       # What write queue length does an incoming req see
system.mem_ctrl.wrQLenPdf::24                       0                       # What write queue length does an incoming req see
system.mem_ctrl.wrQLenPdf::25                       0                       # What write queue length does an incoming req see
system.mem_ctrl.wrQLenPdf::26                       0                       # What write queue length does an incoming req see
system.mem_ctrl.wrQLenPdf::27                       0                       # What write queue length does an incoming req see
system.mem_ctrl.wrQLenPdf::28                       0                       # What write queue length does an incoming req see
system.mem_ctrl.wrQLenPdf::29                       0                       # What write queue length does an incoming req see
system.mem_ctrl.wrQLenPdf::30                       0                       # What write queue length does an incoming req see
system.mem_ctrl.wrQLenPdf::31                       0                       # What write queue length does an incoming req see
system.mem_ctrl.wrQLenPdf::32                       0                       # What write queue length does an incoming req see
system.mem_ctrl.wrQLenPdf::33                       0                       # What write queue length does an incoming req see
system.mem_ctrl.wrQLenPdf::34                       0                       # What write queue length does an incoming req see
system.mem_ctrl.wrQLenPdf::35                       0                       # What write queue length does an incoming req see
system.mem_ctrl.wrQLenPdf::36                       0                       # What write queue length does an incoming req see
system.mem_ctrl.wrQLenPdf::37                       0                       # What write queue length does an incoming req see
system.mem_ctrl.wrQLenPdf::38                       0                       # What write queue length does an incoming req see
system.mem_ctrl.wrQLenPdf::39                       0                       # What write queue length does an incoming req see
system.mem_ctrl.wrQLenPdf::40                       0                       # What write queue length does an incoming req see
system.mem_ctrl.wrQLenPdf::41                       0                       # What write queue length does an incoming req see
system.mem_ctrl.wrQLenPdf::42                       0                       # What write queue length does an incoming req see
system.mem_ctrl.wrQLenPdf::43                       0                       # What write queue length does an incoming req see
system.mem_ctrl.wrQLenPdf::44                       0                       # What write queue length does an incoming req see
system.mem_ctrl.wrQLenPdf::45                       0                       # What write queue length does an incoming req see
system.mem_ctrl.wrQLenPdf::46                       0                       # What write queue length does an incoming req see
system.mem_ctrl.wrQLenPdf::47                       0                       # What write queue length does an incoming req see
system.mem_ctrl.wrQLenPdf::48                       0                       # What write queue length does an incoming req see
system.mem_ctrl.wrQLenPdf::49                       0                       # What write queue length does an incoming req see
system.mem_ctrl.wrQLenPdf::50                       0                       # What write queue length does an incoming req see
system.mem_ctrl.wrQLenPdf::51                       0                       # What write queue length does an incoming req see
system.mem_ctrl.wrQLenPdf::52                       0                       # What write queue length does an incoming req see
system.mem_ctrl.wrQLenPdf::53                       0                       # What write queue length does an incoming req see
system.mem_ctrl.wrQLenPdf::54                       0                       # What write queue length does an incoming req see
system.mem_ctrl.wrQLenPdf::55                       0                       # What write queue length does an incoming req see
system.mem_ctrl.wrQLenPdf::56                       0                       # What write queue length does an incoming req see
system.mem_ctrl.wrQLenPdf::57                       0                       # What write queue length does an incoming req see
system.mem_ctrl.wrQLenPdf::58                       0                       # What write queue length does an incoming req see
system.mem_ctrl.wrQLenPdf::59                       0                       # What write queue length does an incoming req see
system.mem_ctrl.wrQLenPdf::60                       0                       # What write queue length does an incoming req see
system.mem_ctrl.wrQLenPdf::61                       0                       # What write queue length does an incoming req see
system.mem_ctrl.wrQLenPdf::62                       0                       # What write queue length does an incoming req see
system.mem_ctrl.wrQLenPdf::63                       0                       # What write queue length does an incoming req see
system.mem_ctrl.bytesPerActivate::samples          151                       # Bytes accessed per row activation
system.mem_ctrl.bytesPerActivate::mean     309.827815                       # Bytes accessed per row activation
system.mem_ctrl.bytesPerActivate::gmean    199.524841                       # Bytes accessed per row activation
system.mem_ctrl.bytesPerActivate::stdev    293.386566                       # Bytes accessed per row activation
system.mem_ctrl.bytesPerActivate::0-127            46     30.46%     30.46% # Bytes accessed per row activation
system.mem_ctrl.bytesPerActivate::128-255           35     23.18%     53.64% # Bytes accessed per row activation
system.mem_ctrl.bytesPerActivate::256-383           24     15.89%     69.54% # Bytes accessed per row activation
system.mem_ctrl.bytesPerActivate::384-511           13      8.61%     78.15% # Bytes accessed per row activation
system.mem_ctrl.bytesPerActivate::512-639            7      4.64%     82.78% # Bytes accessed per row activation
system.mem_ctrl.bytesPerActivate::640-767            7      4.64%     87.42% # Bytes accessed per row activation
system.mem_ctrl.bytesPerActivate::768-895            4      2.65%     90.07% # Bytes accessed per row activation
system.mem_ctrl.bytesPerActivate::896-1023            5      3.31%     93.38% # Bytes accessed per row activation
system.mem_ctrl.bytesPerActivate::1024-1151           10      6.62%    100.00% # Bytes accessed per row activation
system.mem_ctrl.bytesPerActivate::total           151                       # Bytes accessed per row activation
system.mem_ctrl.masterReadBytes::.cpu.inst        32640                       # Per-master bytes read from memory
system.mem_ctrl.masterReadBytes::.cpu.data        16064                       # Per-master bytes read from memory
system.mem_ctrl.masterReadRate::.cpu.inst 715844417.882951498032                       # Per-master bytes read from memory rate (Bytes/sec)
system.mem_ctrl.masterReadRate::.cpu.data 352307742.918864369392                       # Per-master bytes read from memory rate (Bytes/sec)
system.mem_ctrl.masterReadAccesses::.cpu.inst          510                       # Per-master read serviced memory accesses
system.mem_ctrl.masterReadAccesses::.cpu.data          251                       # Per-master read serviced memory accesses
system.mem_ctrl.masterReadTotalLat::.cpu.inst     16520750                       # Per-master read total memory access latency
system.mem_ctrl.masterReadTotalLat::.cpu.data      8260750                       # Per-master read total memory access latency
system.mem_ctrl.masterReadAvgLat::.cpu.inst     32393.63                       # Per-master read average memory access latency
system.mem_ctrl.masterReadAvgLat::.cpu.data     32911.35                       # Per-master read average memory access latency
system.mem_ctrl.totQLat                      10512750                       # Total ticks spent queuing
system.mem_ctrl.totMemAccLat                 24781500                       # Total ticks spent from burst creation until serviced by the DRAM
system.mem_ctrl.totBusLat                     3805000                       # Total ticks spent in databus transfers
system.mem_ctrl.avgQLat                      13814.39                       # Average queueing delay per DRAM burst
system.mem_ctrl.avgBusLat                     5000.00                       # Average bus latency per DRAM burst
system.mem_ctrl.avgMemAccLat                 32564.39                       # Average memory access latency per DRAM burst
system.mem_ctrl.avgRdBW                       1068.15                       # Average DRAM read bandwidth in MiByte/s
system.mem_ctrl.avgWrBW                          0.00                       # Average achieved write bandwidth in MiByte/s
system.mem_ctrl.avgRdBWSys                    1068.15                       # Average system read bandwidth in MiByte/s
system.mem_ctrl.avgWrBWSys                       0.00                       # Average system write bandwidth in MiByte/s
system.mem_ctrl.peakBW                       12800.00                       # Theoretical peak bandwidth in MiByte/s
system.mem_ctrl.busUtil                          8.34                       # Data bus utilization in percentage
system.mem_ctrl.busUtilRead                      8.34                       # Data bus utilization in percentage for reads
system.mem_ctrl.busUtilWrite                     0.00                       # Data bus utilization in percentage for writes
system.mem_ctrl.avgRdQLen                        1.53                       # Average read queue length when enqueuing
system.mem_ctrl.avgWrQLen                        0.00                       # Average write queue length when enqueuing
system.mem_ctrl.readRowHits                       601                       # Number of row buffer hits during reads
system.mem_ctrl.writeRowHits                        0                       # Number of row buffer hits during writes
system.mem_ctrl.readRowHitRate                  78.98                       # Row buffer hit rate for reads
system.mem_ctrl.writeRowHitRate                   nan                       # Row buffer hit rate for writes
system.mem_ctrl.avgGap                       59795.66                       # Average gap between requests
system.mem_ctrl.pageHitRate                     78.98                       # Row buffer hit rate, read and write combined
system.mem_ctrl_0.actEnergy                    435540                       # Energy for activate commands per rank (pJ)
system.mem_ctrl_0.preEnergy                    216315                       # Energy for precharge commands per rank (pJ)
system.mem_ctrl_0.readEnergy                  2177700                       # Energy for read commands per rank (pJ)
system.mem_ctrl_0.writeEnergy                       0                       # Energy for write commands per rank (pJ)
system.mem_ctrl_0.refreshEnergy          3073200.000000                       # Energy for refresh commands per rank (pJ)
system.mem_ctrl_0.actBackEnergy               4192920                       # Energy for active background per rank (pJ)
system.mem_ctrl_0.preBackEnergy                 79680                       # Energy for precharge background per rank (pJ)
system.mem_ctrl_0.actPowerDownEnergy         15342120                       # Energy for active power-down per rank (pJ)
system.mem_ctrl_0.prePowerDownEnergy           979200                       # Energy for precharge power-down per rank (pJ)
system.mem_ctrl_0.selfRefreshEnergy                 0                       # Energy for self refresh per rank (pJ)
system.mem_ctrl_0.totalEnergy                26496675                       # Total energy per rank (pJ)
system.mem_ctrl_0.averagePower             581.112037                       # Core power per rank (mW)
system.mem_ctrl_0.totalIdleTime              36152250                       # Total Idle time Per DRAM Rank
system.mem_ctrl_0.memoryStateTime::IDLE         42500                       # Time in different power states
system.mem_ctrl_0.memoryStateTime::REF        1300000                       # Time in different power states
system.mem_ctrl_0.memoryStateTime::SREF             0                       # Time in different power states
system.mem_ctrl_0.memoryStateTime::PRE_PDN      2549000                       # Time in different power states
system.mem_ctrl_0.memoryStateTime::ACT        8053000                       # Time in different power states
system.mem_ctrl_0.memoryStateTime::ACT_PDN     33652000                       # Time in different power states
system.mem_ctrl_1.actEnergy                    706860                       # Energy for activate commands per rank (pJ)
system.mem_ctrl_1.preEnergy                    356730                       # Energy for precharge commands per rank (pJ)
system.mem_ctrl_1.readEnergy                  3255840                       # Energy for read commands per rank (pJ)
system.mem_ctrl_1.writeEnergy                       0                       # Energy for write commands per rank (pJ)
system.mem_ctrl_1.refreshEnergy          3073200.000000                       # Energy for refresh commands per rank (pJ)
system.mem_ctrl_1.actBackEnergy               5656680                       # Energy for active background per rank (pJ)
system.mem_ctrl_1.preBackEnergy                124320                       # Energy for precharge background per rank (pJ)
system.mem_ctrl_1.actPowerDownEnergy         14810880                       # Energy for active power-down per rank (pJ)
system.mem_ctrl_1.prePowerDownEnergy           149280                       # Energy for precharge power-down per rank (pJ)
system.mem_ctrl_1.selfRefreshEnergy                 0                       # Energy for self refresh per rank (pJ)
system.mem_ctrl_1.totalEnergy                28133790                       # Total energy per rank (pJ)
system.mem_ctrl_1.averagePower             617.016438                       # Core power per rank (mW)
system.mem_ctrl_1.totalIdleTime              32717750                       # Total Idle time Per DRAM Rank
system.mem_ctrl_1.memoryStateTime::IDLE        130500                       # Time in different power states
system.mem_ctrl_1.memoryStateTime::REF        1300000                       # Time in different power states
system.mem_ctrl_1.memoryStateTime::SREF             0                       # Time in different power states
system.mem_ctrl_1.memoryStateTime::PRE_PDN       388250                       # Time in different power states
system.mem_ctrl_1.memoryStateTime::ACT       11286500                       # Time in different power states
system.mem_ctrl_1.memoryStateTime::ACT_PDN     32491250                       # Time in different power states
system.pwrStateResidencyTicks::UNDEFINED     45596500                       # Cumulative time (in ticks) in various power states
system.cpu.branchPred.lookups                    4023                       # Number of BP lookups
system.cpu.branchPred.condPredicted              4023                       # Number of conditional branches predicted
system.cpu.branchPred.condIncorrect               866                       # Number of conditional branches incorrect
system.cpu.branchPred.BTBLookups                 3624                       # Number of BTB lookups
system.cpu.branchPred.BTBHits                       0                       # Number of BTB hits
system.cpu.branchPred.BTBCorrect                    0                       # Number of correct BTB predictions (this stat may not work properly.
system.cpu.branchPred.BTBHitPct              0.000000                       # BTB Hit Percentage
system.cpu.branchPred.usedRAS                     295                       # Number of times the RAS was used to get a target.
system.cpu.branchPred.RASInCorrect                141                       # Number of incorrect RAS predictions.
system.cpu.branchPred.indirectLookups            3624                       # Number of indirect predictor lookups.
system.cpu.branchPred.indirectHits                433                       # Number of indirect target hits.
system.cpu.branchPred.indirectMisses             3191                       # Number of indirect misses.
system.cpu.branchPredindirectMispredicted          668                       # Number of mispredicted indirect branches.
system.cpu.dtb.walker.pwrStateResidencyTicks::UNDEFINED     45596500                       # Cumulative time (in ticks) in various power states
system.cpu.dtb.rdAccesses                        2189                       # TLB accesses on read requests
system.cpu.dtb.wrAccesses                        1817                       # TLB accesses on write requests
system.cpu.dtb.rdMisses                            88                       # TLB misses on read requests
system.cpu.dtb.wrMisses                            26                       # TLB misses on write requests
system.cpu.apic_clk_domain.clock                 8000                       # Clock period in ticks
system.cpu.interrupts.pwrStateResidencyTicks::UNDEFINED     45596500                       # Cumulative time (in ticks) in various power states
system.cpu.itb.walker.pwrStateResidencyTicks::UNDEFINED     45596500                       # Cumulative time (in ticks) in various power states
system.cpu.itb.rdAccesses                           0                       # TLB accesses on read requests
system.cpu.itb.wrAccesses                        2605                       # TLB accesses on write requests
system.cpu.itb.rdMisses                             0                       # TLB misses on read requests
system.cpu.itb.wrMisses                           142                       # TLB misses on write requests
system.cpu.workload.numSyscalls                    11                       # Number of system calls
system.cpu.pwrStateResidencyTicks::ON        45596500                       # Cumulative time (in ticks) in various power states
system.cpu.numCycles                            91194                       # number of cpu cycles simulated
system.cpu.numWorkItemsStarted                      0                       # number of work items this cpu started
system.cpu.numWorkItemsCompleted                    0                       # number of work items this cpu completed
system.cpu.fetch.icacheStallCycles              32497                       # Number of cycles fetch is stalled on an Icache miss
system.cpu.fetch.Insts                          18413                       # Number of instructions fetch has processed
system.cpu.fetch.Branches                        4023                       # Number of branches that fetch encountered
system.cpu.fetch.predictedBranches                728                       # Number of branches that fetch has predicted taken
system.cpu.fetch.Cycles                         30785                       # Number of cycles fetch has run and was not squashing or blocked
system.cpu.fetch.SquashCycles                    1872                       # Number of cycles fetch has spent squashing
system.cpu.fetch.TlbCycles                         70                       # Number of cycles fetch has spent waiting for tlb
system.cpu.fetch.MiscStallCycles                   69                       # Number of cycles fetch has spent waiting on interrupts, or bad addresses, or out of MSHRs
system.cpu.fetch.PendingTrapStallCycles           810                       # Number of stall cycles due to pending traps
system.cpu.fetch.PendingQuiesceStallCycles           18                       # Number of stall cycles due to pending quiesce instructions
system.cpu.fetch.CacheLines                      2511                       # Number of cache lines fetched
system.cpu.fetch.IcacheSquashes                   288                       # Number of outstanding Icache misses that were squashed
system.cpu.fetch.ItlbSquashes                       1                       # Number of outstanding ITLB misses that were squashed
system.cpu.fetch.rateDist::samples              65185                       # Number of instructions fetched each cycle (Total)
system.cpu.fetch.rateDist::mean              0.565207                       # Number of instructions fetched each cycle (Total)
system.cpu.fetch.rateDist::stdev             0.893190                       # Number of instructions fetched each cycle (Total)
system.cpu.fetch.rateDist::underflows               0      0.00%      0.00% # Number of instructions fetched each cycle (Total)
system.cpu.fetch.rateDist::0                    46334     71.08%     71.08% # Number of instructions fetched each cycle (Total)
system.cpu.fetch.rateDist::1                      859      1.32%     72.40% # Number of instructions fetched each cycle (Total)
system.cpu.fetch.rateDist::2                    17992     27.60%    100.00% # Number of instructions fetched each cycle (Total)
system.cpu.fetch.rateDist::overflows                0      0.00%    100.00% # Number of instructions fetched each cycle (Total)
system.cpu.fetch.rateDist::min_value                0                       # Number of instructions fetched each cycle (Total)
system.cpu.fetch.rateDist::max_value                2                       # Number of instructions fetched each cycle (Total)
system.cpu.fetch.rateDist::total                65185                       # Number of instructions fetched each cycle (Total)
system.cpu.fetch.branchRate                  0.044115                       # Number of branch fetches per cycle
system.cpu.fetch.rate                        0.201910                       # Number of inst fetches per cycle
system.cpu.decode.IdleCycles                    32510                       # Number of cycles decode is idle
system.cpu.decode.BlockedCycles                 14411                       # Number of cycles decode is blocked
system.cpu.decode.RunCycles                     16926                       # Number of cycles decode is running
system.cpu.decode.UnblockCycles                   402                       # Number of cycles decode is unblocking
system.cpu.decode.SquashCycles                    936                       # Number of cycles decode is squashing
system.cpu.decode.DecodedInsts                  31987                       # Number of instructions handled by decode
system.cpu.decode.SquashedInsts                  1980                       # Number of squashed instructions handled by decode
system.cpu.rename.SquashCycles                    936                       # Number of cycles rename is squashing
system.cpu.rename.IdleCycles                    34375                       # Number of cycles rename is idle
system.cpu.rename.BlockCycles                    3882                       # Number of cycles rename is blocking
system.cpu.rename.serializeStallCycles           1251                       # count of cycles rename stalled for serializing inst
system.cpu.rename.RunCycles                     15442                       # Number of cycles rename is running
system.cpu.rename.UnblockCycles                  9299                       # Number of cycles rename is unblocking
system.cpu.rename.RenamedInsts                  29727                       # Number of instructions processed by rename
system.cpu.rename.SquashedInsts                   992                       # Number of squashed instructions processed by rename
system.cpu.rename.ROBFullEvents                    23                       # Number of times rename has blocked due to ROB full
system.cpu.rename.IQFullEvents                     62                       # Number of times rename has blocked due to IQ full
system.cpu.rename.SQFullEvents                   9023                       # Number of times rename has blocked due to SQ full
system.cpu.rename.FullRegisterEvents               11                       # Number of times there has been no free registers
system.cpu.rename.RenamedOperands               32124                       # Number of destination operands rename has renamed
system.cpu.rename.RenameLookups                 72990                       # Number of register rename lookups that rename has made
system.cpu.rename.int_rename_lookups            40598                       # Number of integer rename lookups
system.cpu.rename.fp_rename_lookups              4041                       # Number of floating rename lookups
system.cpu.rename.CommittedMaps                 16825                       # Number of HB maps that are committed
system.cpu.rename.UndoneMaps                    15299                       # Number of HB maps that are undone due to squashing
system.cpu.rename.serializingInsts                 25                       # count of serializing insts renamed
system.cpu.rename.tempSerializingInsts             22                       # count of temporary serializing insts renamed
system.cpu.rename.skidInsts                       791                       # count of insts added to the skid buffer
system.cpu.memDep0.insertedLoads                 2859                       # Number of loads inserted to the mem dependence unit.
system.cpu.memDep0.insertedStores                2379                       # Number of stores inserted to the mem dependence unit.
system.cpu.memDep0.conflictingLoads                15                       # Number of conflicting loads.
system.cpu.memDep0.conflictingStores               36                       # Number of conflicting stores.
system.cpu.iq.iqInstsAdded                      27400                       # Number of instructions added to the IQ (excludes non-spec)
system.cpu.iq.iqNonSpecInstsAdded                  78                       # Number of non-speculative instructions added to the IQ
system.cpu.iq.iqInstsIssued                     23897                       # Number of instructions issued
system.cpu.iq.iqSquashedInstsIssued               498                       # Number of squashed instructions issued
system.cpu.iq.iqSquashedInstsExamined           11863                       # Number of squashed instructions iterated over during squash; mainly for profiling
system.cpu.iq.iqSquashedOperandsExamined        15339                       # Number of squashed operands that are examined and possibly removed from graph
system.cpu.iq.iqSquashedNonSpecRemoved             67                       # Number of squashed non-spec instructions that were removed
system.cpu.iq.issued_per_cycle::samples         65185                       # Number of insts issued each cycle
system.cpu.iq.issued_per_cycle::mean         0.366603                       # Number of insts issued each cycle
system.cpu.iq.issued_per_cycle::stdev        0.717983                       # Number of insts issued each cycle
system.cpu.iq.issued_per_cycle::underflows            0      0.00%      0.00% # Number of insts issued each cycle
system.cpu.iq.issued_per_cycle::0               50521     77.50%     77.50% # Number of insts issued each cycle
system.cpu.iq.issued_per_cycle::1                5431      8.33%     85.84% # Number of insts issued each cycle
system.cpu.iq.issued_per_cycle::2                9233     14.16%    100.00% # Number of insts issued each cycle
system.cpu.iq.issued_per_cycle::overflows            0      0.00%    100.00% # Number of insts issued each cycle
system.cpu.iq.issued_per_cycle::min_value            0                       # Number of insts issued each cycle
system.cpu.iq.issued_per_cycle::max_value            2                       # Number of insts issued each cycle
system.cpu.iq.issued_per_cycle::total           65185                       # Number of insts issued each cycle
system.cpu.iq.fu_full::No_OpClass                   0      0.00%      0.00% # attempts to use FU when none available
system.cpu.iq.fu_full::IntAlu                       0      0.00%      0.00% # attempts to use FU when none available
system.cpu.iq.fu_full::IntMult                      0      0.00%      0.00% # attempts to use FU when none available
system.cpu.iq.fu_full::IntDiv                       0      0.00%      0.00% # attempts to use FU when none available
system.cpu.iq.fu_full::FloatAdd                     0      0.00%      0.00% # attempts to use FU when none available
system.cpu.iq.fu_full::FloatCmp                     0      0.00%      0.00% # attempts to use FU when none available
system.cpu.iq.fu_full::FloatCvt                     0      0.00%      0.00% # attempts to use FU when none available
system.cpu.iq.fu_full::FloatMult                    0      0.00%      0.00% # attempts to use FU when none available
system.cpu.iq.fu_full::FloatMultAcc                 0      0.00%      0.00% # attempts to use FU when none available
system.cpu.iq.fu_full::FloatDiv                     0      0.00%      0.00% # attempts to use FU when none available
system.cpu.iq.fu_full::FloatMisc                    0      0.00%      0.00% # attempts to use FU when none available
system.cpu.iq.fu_full::FloatSqrt                    0      0.00%      0.00% # attempts to use FU when none available
system.cpu.iq.fu_full::SimdAdd                    251     26.20%     26.20% # attempts to use FU when none available
system.cpu.iq.fu_full::SimdAddAcc                   0      0.00%     26.20% # attempts to use FU when none available
system.cpu.iq.fu_full::SimdAlu                     63      6.58%     32.78% # attempts to use FU when none available
system.cpu.iq.fu_full::SimdCmp                      0      0.00%     32.78% # attempts to use FU when none available
system.cpu.iq.fu_full::SimdCvt                     25      2.61%     35.39% # attempts to use FU when none available
system.cpu.iq.fu_full::SimdMisc                   122     12.73%     48.12% # attempts to use FU when none available
system.cpu.iq.fu_full::SimdMult                     0      0.00%     48.12% # attempts to use FU when none available
system.cpu.iq.fu_full::SimdMultAcc                  0      0.00%     48.12% # attempts to use FU when none available
system.cpu.iq.fu_full::SimdShift                  124     12.94%     61.06% # attempts to use FU when none available
system.cpu.iq.fu_full::SimdShiftAcc                 0      0.00%     61.06% # attempts to use FU when none available
system.cpu.iq.fu_full::SimdSqrt                     0      0.00%     61.06% # attempts to use FU when none available
system.cpu.iq.fu_full::SimdFloatAdd                 0      0.00%     61.06% # attempts to use FU when none available
system.cpu.iq.fu_full::SimdFloatAlu                 0      0.00%     61.06% # attempts to use FU when none available
system.cpu.iq.fu_full::SimdFloatCmp                 0      0.00%     61.06% # attempts to use FU when none available
system.cpu.iq.fu_full::SimdFloatCvt                 0      0.00%     61.06% # attempts to use FU when none available
system.cpu.iq.fu_full::SimdFloatDiv                 0      0.00%     61.06% # attempts to use FU when none available
system.cpu.iq.fu_full::SimdFloatMisc                0      0.00%     61.06% # attempts to use FU when none available
system.cpu.iq.fu_full::SimdFloatMult                0      0.00%     61.06% # attempts to use FU when none available
system.cpu.iq.fu_full::SimdFloatMultAcc             0      0.00%     61.06% # attempts to use FU when none available
system.cpu.iq.fu_full::SimdFloatSqrt                0      0.00%     61.06% # attempts to use FU when none available
system.cpu.iq.fu_full::SimdAes                      0      0.00%     61.06% # attempts to use FU when none available
system.cpu.iq.fu_full::SimdAesMix                   0      0.00%     61.06% # attempts to use FU when none available
system.cpu.iq.fu_full::SimdSha1Hash                 0      0.00%     61.06% # attempts to use FU when none available
system.cpu.iq.fu_full::SimdSha1Hash2                0      0.00%     61.06% # attempts to use FU when none available
system.cpu.iq.fu_full::SimdSha256Hash               0      0.00%     61.06% # attempts to use FU when none available
system.cpu.iq.fu_full::SimdSha256Hash2              0      0.00%     61.06% # attempts to use FU when none available
system.cpu.iq.fu_full::SimdShaSigma2                0      0.00%     61.06% # attempts to use FU when none available
system.cpu.iq.fu_full::SimdShaSigma3                0      0.00%     61.06% # attempts to use FU when none available
system.cpu.iq.fu_full::MemRead                    228     23.80%     84.86% # attempts to use FU when none available
system.cpu.iq.fu_full::MemWrite                   145     15.14%    100.00% # attempts to use FU when none available
system.cpu.iq.fu_full::FloatMemRead                 0      0.00%    100.00% # attempts to use FU when none available
system.cpu.iq.fu_full::FloatMemWrite                0      0.00%    100.00% # attempts to use FU when none available
system.cpu.iq.fu_full::IprAccess                    0      0.00%    100.00% # attempts to use FU when none available
system.cpu.iq.fu_full::InstPrefetch                 0      0.00%    100.00% # attempts to use FU when none available
system.cpu.iq.FU_type_0::No_OpClass               337      1.41%      1.41% # Type of FU issued
system.cpu.iq.FU_type_0::IntAlu                 18088     75.69%     77.10% # Type of FU issued
system.cpu.iq.FU_type_0::IntMult                    4      0.02%     77.12% # Type of FU issued
system.cpu.iq.FU_type_0::IntDiv                    31      0.13%     77.25% # Type of FU issued
system.cpu.iq.FU_type_0::FloatAdd                  13      0.05%     77.30% # Type of FU issued
system.cpu.iq.FU_type_0::FloatCmp                   0      0.00%     77.30% # Type of FU issued
system.cpu.iq.FU_type_0::FloatCvt                   0      0.00%     77.30% # Type of FU issued
system.cpu.iq.FU_type_0::FloatMult                  0      0.00%     77.30% # Type of FU issued
system.cpu.iq.FU_type_0::FloatMultAcc               0      0.00%     77.30% # Type of FU issued
system.cpu.iq.FU_type_0::FloatDiv                   0      0.00%     77.30% # Type of FU issued
system.cpu.iq.FU_type_0::FloatMisc                  0      0.00%     77.30% # Type of FU issued
system.cpu.iq.FU_type_0::FloatSqrt                  0      0.00%     77.30% # Type of FU issued
system.cpu.iq.FU_type_0::SimdAdd                  375      1.57%     78.87% # Type of FU issued
system.cpu.iq.FU_type_0::SimdAddAcc                 0      0.00%     78.87% # Type of FU issued
system.cpu.iq.FU_type_0::SimdAlu                   92      0.38%     79.26% # Type of FU issued
system.cpu.iq.FU_type_0::SimdCmp                    0      0.00%     79.26% # Type of FU issued
system.cpu.iq.FU_type_0::SimdCvt                  130      0.54%     79.80% # Type of FU issued
system.cpu.iq.FU_type_0::SimdMisc                 241      1.01%     80.81% # Type of FU issued
system.cpu.iq.FU_type_0::SimdMult                   0      0.00%     80.81% # Type of FU issued
system.cpu.iq.FU_type_0::SimdMultAcc                0      0.00%     80.81% # Type of FU issued
system.cpu.iq.FU_type_0::SimdShift                186      0.78%     81.59% # Type of FU issued
system.cpu.iq.FU_type_0::SimdShiftAcc               0      0.00%     81.59% # Type of FU issued
system.cpu.iq.FU_type_0::SimdSqrt                   0      0.00%     81.59% # Type of FU issued
system.cpu.iq.FU_type_0::SimdFloatAdd               0      0.00%     81.59% # Type of FU issued
system.cpu.iq.FU_type_0::SimdFloatAlu               0      0.00%     81.59% # Type of FU issued
system.cpu.iq.FU_type_0::SimdFloatCmp               0      0.00%     81.59% # Type of FU issued
system.cpu.iq.FU_type_0::SimdFloatCvt               0      0.00%     81.59% # Type of FU issued
system.cpu.iq.FU_type_0::SimdFloatDiv               0      0.00%     81.59% # Type of FU issued
system.cpu.iq.FU_type_0::SimdFloatMisc              0      0.00%     81.59% # Type of FU issued
system.cpu.iq.FU_type_0::SimdFloatMult              0      0.00%     81.59% # Type of FU issued
system.cpu.iq.FU_type_0::SimdFloatMultAcc            0      0.00%     81.59% # Type of FU issued
system.cpu.iq.FU_type_0::SimdFloatSqrt              0      0.00%     81.59% # Type of FU issued
system.cpu.iq.FU_type_0::SimdAes                    0      0.00%     81.59% # Type of FU issued
system.cpu.iq.FU_type_0::SimdAesMix                 0      0.00%     81.59% # Type of FU issued
system.cpu.iq.FU_type_0::SimdSha1Hash               0      0.00%     81.59% # Type of FU issued
system.cpu.iq.FU_type_0::SimdSha1Hash2              0      0.00%     81.59% # Type of FU issued
system.cpu.iq.FU_type_0::SimdSha256Hash             0      0.00%     81.59% # Type of FU issued
system.cpu.iq.FU_type_0::SimdSha256Hash2            0      0.00%     81.59% # Type of FU issued
system.cpu.iq.FU_type_0::SimdShaSigma2              0      0.00%     81.59% # Type of FU issued
system.cpu.iq.FU_type_0::SimdShaSigma3              0      0.00%     81.59% # Type of FU issued
system.cpu.iq.FU_type_0::MemRead                 2343      9.80%     91.39% # Type of FU issued
system.cpu.iq.FU_type_0::MemWrite                1524      6.38%     97.77% # Type of FU issued
system.cpu.iq.FU_type_0::FloatMemRead              95      0.40%     98.17% # Type of FU issued
system.cpu.iq.FU_type_0::FloatMemWrite            438      1.83%    100.00% # Type of FU issued
system.cpu.iq.FU_type_0::IprAccess                  0      0.00%    100.00% # Type of FU issued
system.cpu.iq.FU_type_0::InstPrefetch               0      0.00%    100.00% # Type of FU issued
system.cpu.iq.FU_type_0::total                  23897                       # Type of FU issued
system.cpu.iq.rate                           0.262046                       # Inst issue rate
system.cpu.iq.fu_busy_cnt                         958                       # FU busy when requested
system.cpu.iq.fu_busy_rate                   0.040089                       # FU busy rate (busy events/executed inst)
system.cpu.iq.int_inst_queue_reads             109661                       # Number of integer instruction queue reads
system.cpu.iq.int_inst_queue_writes             37144                       # Number of integer instruction queue writes
system.cpu.iq.int_inst_queue_wakeup_accesses        19180                       # Number of integer instruction queue wakeup accesses
system.cpu.iq.fp_inst_queue_reads                4774                       # Number of floating instruction queue reads
system.cpu.iq.fp_inst_queue_writes               2201                       # Number of floating instruction queue writes
system.cpu.iq.fp_inst_queue_wakeup_accesses         2068                       # Number of floating instruction queue wakeup accesses
system.cpu.iq.vec_inst_queue_reads                  0                       # Number of vector instruction queue reads
system.cpu.iq.vec_inst_queue_writes                 0                       # Number of vector instruction queue writes
system.cpu.iq.vec_inst_queue_wakeup_accesses            0                       # Number of vector instruction queue wakeup accesses
system.cpu.iq.int_alu_accesses                  21839                       # Number of integer alu accesses
system.cpu.iq.fp_alu_accesses                    2679                       # Number of floating point alu accesses
system.cpu.iq.vec_alu_accesses                      0                       # Number of vector alu accesses
system.cpu.iew.lsq.thread0.forwLoads               52                       # Number of loads that had data forwarded from stores
system.cpu.iew.lsq.thread0.invAddrLoads             0                       # Number of loads ignored due to an invalid address
system.cpu.iew.lsq.thread0.squashedLoads         1388                       # Number of loads squashed
system.cpu.iew.lsq.thread0.ignoredResponses            2                       # Number of memory responses ignored because the instruction is squashed
system.cpu.iew.lsq.thread0.memOrderViolation            4                       # Number of memory ordering violations
system.cpu.iew.lsq.thread0.squashedStores          844                       # Number of stores squashed
system.cpu.iew.lsq.thread0.invAddrSwpfs             0                       # Number of software prefetches ignored due to an invalid address
system.cpu.iew.lsq.thread0.blockedLoads             0                       # Number of blocked loads due to partial load-store forwarding
system.cpu.iew.lsq.thread0.rescheduledLoads            0                       # Number of loads that were rescheduled
system.cpu.iew.lsq.thread0.cacheBlocked            13                       # Number of times an access to memory failed due to the cache being blocked
system.cpu.iew.iewIdleCycles                        0                       # Number of cycles IEW is idle
system.cpu.iew.iewSquashCycles                    936                       # Number of cycles IEW is squashing
system.cpu.iew.iewBlockCycles                    1182                       # Number of cycles IEW is blocking
system.cpu.iew.iewUnblockCycles                  1128                       # Number of cycles IEW is unblocking
system.cpu.iew.iewDispatchedInsts               27478                       # Number of instructions dispatched to IQ
system.cpu.iew.iewDispSquashedInsts               798                       # Number of squashed instructions skipped by dispatch
system.cpu.iew.iewDispLoadInsts                  2859                       # Number of dispatched load instructions
system.cpu.iew.iewDispStoreInsts                 2379                       # Number of dispatched store instructions
system.cpu.iew.iewDispNonSpecInsts                 37                       # Number of dispatched non-speculative instructions
system.cpu.iew.iewIQFullEvents                     13                       # Number of times the IQ has become full, causing a stall
system.cpu.iew.iewLSQFullEvents                  1106                       # Number of times the LSQ has become full, causing a stall
system.cpu.iew.memOrderViolationEvents              4                       # Number of memory order violations
system.cpu.iew.predictedTakenIncorrect            178                       # Number of branches that were predicted taken incorrectly
system.cpu.iew.predictedNotTakenIncorrect          886                       # Number of branches that were predicted not taken incorrectly
system.cpu.iew.branchMispredicts                 1064                       # Number of branch mispredicts detected at execute
system.cpu.iew.iewExecutedInsts                 21811                       # Number of executed instructions
system.cpu.iew.iewExecLoadInsts                  2184                       # Number of load instructions executed
system.cpu.iew.iewExecSquashedInsts              2086                       # Number of squashed instructions skipped in execute
system.cpu.iew.exec_swp                             0                       # number of swp insts executed
system.cpu.iew.exec_nop                             0                       # number of nop insts executed
system.cpu.iew.exec_refs                         4001                       # number of memory reference insts executed
system.cpu.iew.exec_branches                     1932                       # Number of branches executed
system.cpu.iew.exec_stores                       1817                       # Number of stores executed
system.cpu.iew.exec_rate                     0.239171                       # Inst execution rate
system.cpu.iew.wb_sent                          21545                       # cumulative count of insts sent to commit
system.cpu.iew.wb_count                         21248                       # cumulative count of insts written-back
system.cpu.iew.wb_producers                     14576                       # num instructions producing a value
system.cpu.iew.wb_consumers                     22456                       # num instructions consuming a value
system.cpu.iew.wb_rate                       0.232998                       # insts written-back per cycle
system.cpu.iew.wb_fanout                     0.649092                       # average fanout of values written-back
system.cpu.commit.commitSquashedInsts           10666                       # The number of squashed insts skipped by commit
system.cpu.commit.commitNonSpecStalls              11                       # The number of times commit has been forced to stall to communicate backwards
system.cpu.commit.branchMispredicts               932                       # The number of times a branch was mispredicted
system.cpu.commit.committed_per_cycle::samples        63975                       # Number of insts commited each cycle
system.cpu.commit.committed_per_cycle::mean     0.244064                       # Number of insts commited each cycle
system.cpu.commit.committed_per_cycle::stdev     0.609339                       # Number of insts commited each cycle
system.cpu.commit.committed_per_cycle::underflows            0      0.00%      0.00% # Number of insts commited each cycle
system.cpu.commit.committed_per_cycle::0        54336     84.93%     84.93% # Number of insts commited each cycle
system.cpu.commit.committed_per_cycle::1         3664      5.73%     90.66% # Number of insts commited each cycle
system.cpu.commit.committed_per_cycle::2         5975      9.34%    100.00% # Number of insts commited each cycle
system.cpu.commit.committed_per_cycle::overflows            0      0.00%    100.00% # Number of insts commited each cycle
system.cpu.commit.committed_per_cycle::min_value            0                       # Number of insts commited each cycle
system.cpu.commit.committed_per_cycle::max_value            2                       # Number of insts commited each cycle
system.cpu.commit.committed_per_cycle::total        63975                       # Number of insts commited each cycle
system.cpu.commit.committedInsts                 7739                       # Number of instructions committed
system.cpu.commit.committedOps                  15614                       # Number of ops (including micro ops) committed
system.cpu.commit.swp_count                         0                       # Number of s/w prefetches committed
system.cpu.commit.refs                           3006                       # Number of memory references committed
system.cpu.commit.loads                          1471                       # Number of loads committed
system.cpu.commit.membars                           0                       # Number of memory barriers committed
system.cpu.commit.branches                       1585                       # Number of branches committed
system.cpu.commit.vec_insts                         0                       # Number of committed Vector instructions.
system.cpu.commit.fp_insts                       2049                       # Number of committed floating point instructions.
system.cpu.commit.int_insts                     14016                       # Number of committed integer instructions.
system.cpu.commit.function_calls                  153                       # Number of function calls committed.
system.cpu.commit.op_class_0::No_OpClass          109      0.70%      0.70% # Class of committed instruction
system.cpu.commit.op_class_0::IntAlu            11435     73.24%     73.93% # Class of committed instruction
system.cpu.commit.op_class_0::IntMult               4      0.03%     73.96% # Class of committed instruction
system.cpu.commit.op_class_0::IntDiv               28      0.18%     74.14% # Class of committed instruction
system.cpu.commit.op_class_0::FloatAdd             12      0.08%     74.22% # Class of committed instruction
system.cpu.commit.op_class_0::FloatCmp              0      0.00%     74.22% # Class of committed instruction
system.cpu.commit.op_class_0::FloatCvt              0      0.00%     74.22% # Class of committed instruction
system.cpu.commit.op_class_0::FloatMult             0      0.00%     74.22% # Class of committed instruction
system.cpu.commit.op_class_0::FloatMultAcc            0      0.00%     74.22% # Class of committed instruction
system.cpu.commit.op_class_0::FloatDiv              0      0.00%     74.22% # Class of committed instruction
system.cpu.commit.op_class_0::FloatMisc             0      0.00%     74.22% # Class of committed instruction
system.cpu.commit.op_class_0::FloatSqrt             0      0.00%     74.22% # Class of committed instruction
system.cpu.commit.op_class_0::SimdAdd             374      2.40%     76.61% # Class of committed instruction
system.cpu.commit.op_class_0::SimdAddAcc            0      0.00%     76.61% # Class of committed instruction
system.cpu.commit.op_class_0::SimdAlu              90      0.58%     77.19% # Class of committed instruction
system.cpu.commit.op_class_0::SimdCmp               0      0.00%     77.19% # Class of committed instruction
system.cpu.commit.op_class_0::SimdCvt             130      0.83%     78.02% # Class of committed instruction
system.cpu.commit.op_class_0::SimdMisc            240      1.54%     79.56% # Class of committed instruction
system.cpu.commit.op_class_0::SimdMult              0      0.00%     79.56% # Class of committed instruction
system.cpu.commit.op_class_0::SimdMultAcc            0      0.00%     79.56% # Class of committed instruction
system.cpu.commit.op_class_0::SimdShift           186      1.19%     80.75% # Class of committed instruction
system.cpu.commit.op_class_0::SimdShiftAcc            0      0.00%     80.75% # Class of committed instruction
system.cpu.commit.op_class_0::SimdSqrt              0      0.00%     80.75% # Class of committed instruction
system.cpu.commit.op_class_0::SimdFloatAdd            0      0.00%     80.75% # Class of committed instruction
system.cpu.commit.op_class_0::SimdFloatAlu            0      0.00%     80.75% # Class of committed instruction
system.cpu.commit.op_class_0::SimdFloatCmp            0      0.00%     80.75% # Class of committed instruction
system.cpu.commit.op_class_0::SimdFloatCvt            0      0.00%     80.75% # Class of committed instruction
system.cpu.commit.op_class_0::SimdFloatDiv            0      0.00%     80.75% # Class of committed instruction
system.cpu.commit.op_class_0::SimdFloatMisc            0      0.00%     80.75% # Class of committed instruction
system.cpu.commit.op_class_0::SimdFloatMult            0      0.00%     80.75% # Class of committed instruction
system.cpu.commit.op_class_0::SimdFloatMultAcc            0      0.00%     80.75% # Class of committed instruction
system.cpu.commit.op_class_0::SimdFloatSqrt            0      0.00%     80.75% # Class of committed instruction
system.cpu.commit.op_class_0::SimdAes               0      0.00%     80.75% # Class of committed instruction
system.cpu.commit.op_class_0::SimdAesMix            0      0.00%     80.75% # Class of committed instruction
system.cpu.commit.op_class_0::SimdSha1Hash            0      0.00%     80.75% # Class of committed instruction
system.cpu.commit.op_class_0::SimdSha1Hash2            0      0.00%     80.75% # Class of committed instruction
system.cpu.commit.op_class_0::SimdSha256Hash            0      0.00%     80.75% # Class of committed instruction
system.cpu.commit.op_class_0::SimdSha256Hash2            0      0.00%     80.75% # Class of committed instruction
system.cpu.commit.op_class_0::SimdShaSigma2            0      0.00%     80.75% # Class of committed instruction
system.cpu.commit.op_class_0::SimdShaSigma3            0      0.00%     80.75% # Class of committed instruction
system.cpu.commit.op_class_0::MemRead            1397      8.95%     89.70% # Class of committed instruction
system.cpu.commit.op_class_0::MemWrite           1114      7.13%     96.83% # Class of committed instruction
system.cpu.commit.op_class_0::FloatMemRead           74      0.47%     97.30% # Class of committed instruction
system.cpu.commit.op_class_0::FloatMemWrite          421      2.70%    100.00% # Class of committed instruction
system.cpu.commit.op_class_0::IprAccess             0      0.00%    100.00% # Class of committed instruction
system.cpu.commit.op_class_0::InstPrefetch            0      0.00%    100.00% # Class of committed instruction
system.cpu.commit.op_class_0::total             15614                       # Class of committed instruction
system.cpu.commit.bw_lim_events                  5975                       # number cycles where commit BW limit reached
system.cpu.rob.rob_reads                        84280                       # The number of ROB reads
system.cpu.rob.rob_writes                       53771                       # The number of ROB writes
system.cpu.timesIdled                             312                       # Number of times that the entire CPU went into an idle state and unscheduled itself
system.cpu.idleCycles                           26009                       # Total number of cycles that the CPU has spent unscheduled due to idling
system.cpu.committedInsts                        7739                       # Number of Instructions Simulated
system.cpu.committedOps                         15614                       # Number of Ops (including micro ops) Simulated
system.cpu.cpi                              11.783693                       # CPI: Cycles Per Instruction
system.cpu.cpi_total                        11.783693                       # CPI: Total CPI of All Threads
system.cpu.ipc                               0.084863                       # IPC: Instructions Per Cycle
system.cpu.ipc_total                         0.084863                       # IPC: Total IPC of All Threads
system.cpu.int_regfile_reads                    27590                       # number of integer regfile reads
system.cpu.int_regfile_writes                   15915                       # number of integer regfile writes
system.cpu.fp_regfile_reads                      3962                       # number of floating regfile reads
system.cpu.fp_regfile_writes                     1572                       # number of floating regfile writes
system.cpu.cc_regfile_reads                      9484                       # number of cc regfile reads
system.cpu.cc_regfile_writes                     5634                       # number of cc regfile writes
system.cpu.misc_regfile_reads                    9094                       # number of misc regfile reads
system.cpu.dcache.tags.pwrStateResidencyTicks::UNDEFINED     45596500                       # Cumulative time (in ticks) in various power states
system.cpu.dcache.tags.tagsinuse           145.403838                       # Cycle average of tags in use
system.cpu.dcache.tags.total_refs                3471                       # Total number of references to valid blocks.
system.cpu.dcache.tags.sampled_refs               253                       # Sample count of references to valid blocks.
system.cpu.dcache.tags.avg_refs             13.719368                       # Average number of references to valid blocks.
system.cpu.dcache.tags.warmup_cycle            170000                       # Cycle when the warmup percentage was hit.
system.cpu.dcache.tags.occ_blocks::.cpu.data   145.403838                       # Average occupied blocks per requestor
system.cpu.dcache.tags.occ_percent::.cpu.data     0.283992                       # Average percentage of cache occupancy
system.cpu.dcache.tags.occ_percent::total     0.283992                       # Average percentage of cache occupancy
system.cpu.dcache.tags.occ_task_id_blocks::1024          253                       # Occupied blocks per task id
system.cpu.dcache.tags.age_task_id_blocks_1024::0           33                       # Occupied blocks per task id
system.cpu.dcache.tags.age_task_id_blocks_1024::1          220                       # Occupied blocks per task id
system.cpu.dcache.tags.occ_task_id_percent::1024     0.494141                       # Percentage of cache occupancy per task id
system.cpu.dcache.tags.tag_accesses             28941                       # Number of tag accesses
system.cpu.dcache.tags.data_accesses            28941                       # Number of data accesses
system.cpu.dcache.pwrStateResidencyTicks::UNDEFINED     45596500                       # Cumulative time (in ticks) in various power states
system.cpu.dcache.ReadReq_hits::.cpu.data         1814                       # number of ReadReq hits
system.cpu.dcache.ReadReq_hits::total            1814                       # number of ReadReq hits
system.cpu.dcache.WriteReq_hits::.cpu.data         1404                       # number of WriteReq hits
system.cpu.dcache.WriteReq_hits::total           1404                       # number of WriteReq hits
system.cpu.dcache.demand_hits::.cpu.data         3218                       # number of demand (read+write) hits
system.cpu.dcache.demand_hits::total             3218                       # number of demand (read+write) hits
system.cpu.dcache.overall_hits::.cpu.data         3218                       # number of overall hits
system.cpu.dcache.overall_hits::total            3218                       # number of overall hits
system.cpu.dcache.ReadReq_misses::.cpu.data          237                       # number of ReadReq misses
system.cpu.dcache.ReadReq_misses::total           237                       # number of ReadReq misses
system.cpu.dcache.WriteReq_misses::.cpu.data          131                       # number of WriteReq misses
system.cpu.dcache.WriteReq_misses::total          131                       # number of WriteReq misses
system.cpu.dcache.demand_misses::.cpu.data          368                       # number of demand (read+write) misses
system.cpu.dcache.demand_misses::total            368                       # number of demand (read+write) misses
system.cpu.dcache.overall_misses::.cpu.data          368                       # number of overall misses
system.cpu.dcache.overall_misses::total           368                       # number of overall misses
system.cpu.dcache.ReadReq_miss_latency::.cpu.data     18607500                       # number of ReadReq miss cycles
system.cpu.dcache.ReadReq_miss_latency::total     18607500                       # number of ReadReq miss cycles
system.cpu.dcache.WriteReq_miss_latency::.cpu.data     10627500                       # number of WriteReq miss cycles
system.cpu.dcache.WriteReq_miss_latency::total     10627500                       # number of WriteReq miss cycles
system.cpu.dcache.demand_miss_latency::.cpu.data     29235000                       # number of demand (read+write) miss cycles
system.cpu.dcache.demand_miss_latency::total     29235000                       # number of demand (read+write) miss cycles
system.cpu.dcache.overall_miss_latency::.cpu.data     29235000                       # number of overall miss cycles
system.cpu.dcache.overall_miss_latency::total     29235000                       # number of overall miss cycles
system.cpu.dcache.ReadReq_accesses::.cpu.data         2051                       # number of ReadReq accesses(hits+misses)
system.cpu.dcache.ReadReq_accesses::total         2051                       # number of ReadReq accesses(hits+misses)
system.cpu.dcache.WriteReq_accesses::.cpu.data         1535                       # number of WriteReq accesses(hits+misses)
system.cpu.dcache.WriteReq_accesses::total         1535                       # number of WriteReq accesses(hits+misses)
system.cpu.dcache.demand_accesses::.cpu.data         3586                       # number of demand (read+write) accesses
system.cpu.dcache.demand_accesses::total         3586                       # number of demand (read+write) accesses
system.cpu.dcache.overall_accesses::.cpu.data         3586                       # number of overall (read+write) accesses
system.cpu.dcache.overall_accesses::total         3586                       # number of overall (read+write) accesses
system.cpu.dcache.ReadReq_miss_rate::.cpu.data     0.115553                       # miss rate for ReadReq accesses
system.cpu.dcache.ReadReq_miss_rate::total     0.115553                       # miss rate for ReadReq accesses
system.cpu.dcache.WriteReq_miss_rate::.cpu.data     0.085342                       # miss rate for WriteReq accesses
system.cpu.dcache.WriteReq_miss_rate::total     0.085342                       # miss rate for WriteReq accesses
system.cpu.dcache.demand_miss_rate::.cpu.data     0.102621                       # miss rate for demand accesses
system.cpu.dcache.demand_miss_rate::total     0.102621                       # miss rate for demand accesses
system.cpu.dcache.overall_miss_rate::.cpu.data     0.102621                       # miss rate for overall accesses
system.cpu.dcache.overall_miss_rate::total     0.102621                       # miss rate for overall accesses
system.cpu.dcache.ReadReq_avg_miss_latency::.cpu.data 78512.658228                       # average ReadReq miss latency
system.cpu.dcache.ReadReq_avg_miss_latency::total 78512.658228                       # average ReadReq miss latency
system.cpu.dcache.WriteReq_avg_miss_latency::.cpu.data 81125.954198                       # average WriteReq miss latency
system.cpu.dcache.WriteReq_avg_miss_latency::total 81125.954198                       # average WriteReq miss latency
system.cpu.dcache.demand_avg_miss_latency::.cpu.data 79442.934783                       # average overall miss latency
system.cpu.dcache.demand_avg_miss_latency::total 79442.934783                       # average overall miss latency
[...]
system.l3bus.snoop_fanout::1                        0      0.00%    100.00% # Request fanout histogram
system.l3bus.snoop_fanout::overflows                0      0.00%    100.00% # Request fanout histogram
system.l3bus.snoop_fanout::min_value                0                       # Request fanout histogram
system.l3bus.snoop_fanout::max_value                0                       # Request fanout histogram
system.l3bus.snoop_fanout::total                  761                       # Request fanout histogram
system.l3bus.reqLayer0.occupancy               380500                       # Layer occupancy (ticks)
system.l3bus.reqLayer0.utilization                0.8                       # Layer utilization (%)
system.l3bus.respLayer0.occupancy             1902500                       # Layer occupancy (ticks)
system.l3bus.respLayer0.utilization               4.2                       # Layer utilization (%)
system.l3cache.tags.pwrStateResidencyTicks::UNDEFINED     45596500                       # Cumulative time (in ticks) in various power states
system.l3cache.tags.tagsinuse              388.484497                       # Cycle average of tags in use
system.l3cache.tags.total_refs                    761                       # Total number of references to valid blocks.
system.l3cache.tags.sampled_refs                  761                       # Sample count of references to valid blocks.
system.l3cache.tags.avg_refs                        1                       # Average number of references to valid blocks.
system.l3cache.tags.warmup_cycle                76000                       # Cycle when the warmup percentage was hit.
system.l3cache.tags.occ_blocks::.cpu.inst   243.441520                       # Average occupied blocks per requestor
system.l3cache.tags.occ_blocks::.cpu.data   145.042977                       # Average occupied blocks per requestor
system.l3cache.tags.occ_percent::.cpu.inst     0.007429                       # Average percentage of cache occupancy
system.l3cache.tags.occ_percent::.cpu.data     0.004426                       # Average percentage of cache occupancy
system.l3cache.tags.occ_percent::total       0.011856                       # Average percentage of cache occupancy
system.l3cache.tags.occ_task_id_blocks::1024          761                       # Occupied blocks per task id
system.l3cache.tags.age_task_id_blocks_1024::0          157                       # Occupied blocks per task id
system.l3cache.tags.age_task_id_blocks_1024::1          604                       # Occupied blocks per task id
system.l3cache.tags.occ_task_id_percent::1024     0.023224                       # Percentage of cache occupancy per task id
system.l3cache.tags.tag_accesses                12937                       # Number of tag accesses
system.l3cache.tags.data_accesses               12937                       # Number of data accesses
system.l3cache.pwrStateResidencyTicks::UNDEFINED     45596500                       # Cumulative time (in ticks) in various power states
system.l3cache.ReadExReq_misses::.cpu.data          129                       # number of ReadExReq misses
system.l3cache.ReadExReq_misses::total            129                       # number of ReadExReq misses
system.l3cache.ReadSharedReq_misses::.cpu.inst          510                       # number of ReadSharedReq misses
system.l3cache.ReadSharedReq_misses::.cpu.data          122                       # number of ReadSharedReq misses
system.l3cache.ReadSharedReq_misses::total          632                       # number of ReadSharedReq misses
system.l3cache.demand_misses::.cpu.inst           510                       # number of demand (read+write) misses
system.l3cache.demand_misses::.cpu.data           251                       # number of demand (read+write) misses
system.l3cache.demand_misses::total               761                       # number of demand (read+write) misses
system.l3cache.overall_misses::.cpu.inst          510                       # number of overall misses
system.l3cache.overall_misses::.cpu.data          251                       # number of overall misses
system.l3cache.overall_misses::total              761                       # number of overall misses
system.l3cache.ReadExReq_miss_latency::.cpu.data      8756000                       # number of ReadExReq miss cycles
system.l3cache.ReadExReq_miss_latency::total      8756000                       # number of ReadExReq miss cycles
system.l3cache.ReadSharedReq_miss_latency::.cpu.inst     35504000                       # number of ReadSharedReq miss cycles
system.l3cache.ReadSharedReq_miss_latency::.cpu.data      8843500                       # number of ReadSharedReq miss cycles
system.l3cache.ReadSharedReq_miss_latency::total     44347500                       # number of ReadSharedReq miss cycles
system.l3cache.demand_miss_latency::.cpu.inst     35504000                       # number of demand (read+write) miss cycles
system.l3cache.demand_miss_latency::.cpu.data     17599500                       # number of demand (read+write) miss cycles
system.l3cache.demand_miss_latency::total     53103500                       # number of demand (read+write) miss cycles
system.l3cache.overall_miss_latency::.cpu.inst     35504000                       # number of overall miss cycles
system.l3cache.overall_miss_latency::.cpu.data     17599500                       # number of overall miss cycles
system.l3cache.overall_miss_latency::total     53103500                       # number of overall miss cycles
system.l3cache.ReadExReq_accesses::.cpu.data          129                       # number of ReadExReq accesses(hits+misses)
system.l3cache.ReadExReq_accesses::total          129                       # number of ReadExReq accesses(hits+misses)
system.l3cache.ReadSharedReq_accesses::.cpu.inst          510                       # number of ReadSharedReq accesses(hits+misses)
system.l3cache.ReadSharedReq_accesses::.cpu.data          122                       # number of ReadSharedReq accesses(hits+misses)
system.l3cache.ReadSharedReq_accesses::total          632                       # number of ReadSharedReq accesses(hits+misses)
system.l3cache.demand_accesses::.cpu.inst          510                       # number of demand (read+write) accesses
system.l3cache.demand_accesses::.cpu.data          251                       # number of demand (read+write) accesses
system.l3cache.demand_accesses::total             761                       # number of demand (read+write) accesses
system.l3cache.overall_accesses::.cpu.inst          510                       # number of overall (read+write) accesses
system.l3cache.overall_accesses::.cpu.data          251                       # number of overall (read+write) accesses
system.l3cache.overall_accesses::total            761                       # number of overall (read+write) accesses
system.l3cache.ReadExReq_miss_rate::.cpu.data            1                       # miss rate for ReadExReq accesses
system.l3cache.ReadExReq_miss_rate::total            1                       # miss rate for ReadExReq accesses
system.l3cache.ReadSharedReq_miss_rate::.cpu.inst            1                       # miss rate for ReadSharedReq accesses
system.l3cache.ReadSharedReq_miss_rate::.cpu.data            1                       # miss rate for ReadSharedReq accesses
system.l3cache.ReadSharedReq_miss_rate::total            1                       # miss rate for ReadSharedReq accesses
system.l3cache.demand_miss_rate::.cpu.inst            1                       # miss rate for demand accesses
system.l3cache.demand_miss_rate::.cpu.data            1                       # miss rate for demand accesses
system.l3cache.demand_miss_rate::total              1                       # miss rate for demand accesses
system.l3cache.overall_miss_rate::.cpu.inst            1                       # miss rate for overall accesses
system.l3cache.overall_miss_rate::.cpu.data            1                       # miss rate for overall accesses
system.l3cache.overall_miss_rate::total             1                       # miss rate for overall accesses
system.l3cache.ReadExReq_avg_miss_latency::.cpu.data 67875.968992                       # average ReadExReq miss latency
system.l3cache.ReadExReq_avg_miss_latency::total 67875.968992                       # average ReadExReq miss latency
system.l3cache.ReadSharedReq_avg_miss_latency::.cpu.inst 69615.686275                       # average ReadSharedReq miss latency
system.l3cache.ReadSharedReq_avg_miss_latency::.cpu.data 72487.704918                       # average ReadSharedReq miss latency
system.l3cache.ReadSharedReq_avg_miss_latency::total 70170.094937                       # average ReadSharedReq miss latency
system.l3cache.demand_avg_miss_latency::.cpu.inst 69615.686275                       # average overall miss latency
system.l3cache.demand_avg_miss_latency::.cpu.data 70117.529880                       # average overall miss latency
system.l3cache.demand_avg_miss_latency::total 69781.208936                       # average overall miss latency
system.l3cache.overall_avg_miss_latency::.cpu.inst 69615.686275                       # average overall miss latency
system.l3cache.overall_avg_miss_latency::.cpu.data 70117.529880                       # average overall miss latency
system.l3cache.overall_avg_miss_latency::total 69781.208936                       # average overall miss latency
system.l3cache.blocked_cycles::no_mshrs             0                       # number of cycles access was blocked
system.l3cache.blocked_cycles::no_targets            0                       # number of cycles access was blocked
system.l3cache.blocked::no_mshrs                    0                       # number of cycles access was blocked
system.l3cache.blocked::no_targets                  0                       # number of cycles access was blocked
system.l3cache.avg_blocked_cycles::no_mshrs          nan                       # average number of cycles each access was blocked
system.l3cache.avg_blocked_cycles::no_targets          nan                       # average number of cycles each access was blocked
system.l3cache.ReadExReq_mshr_misses::.cpu.data          129                       # number of ReadExReq MSHR misses
system.l3cache.ReadExReq_mshr_misses::total          129                       # number of ReadExReq MSHR misses
system.l3cache.ReadSharedReq_mshr_misses::.cpu.inst          510                       # number of ReadSharedReq MSHR misses
system.l3cache.ReadSharedReq_mshr_misses::.cpu.data          122                       # number of ReadSharedReq MSHR misses
system.l3cache.ReadSharedReq_mshr_misses::total          632                       # number of ReadSharedReq MSHR misses
system.l3cache.demand_mshr_misses::.cpu.inst          510                       # number of demand (read+write) MSHR misses
system.l3cache.demand_mshr_misses::.cpu.data          251                       # number of demand (read+write) MSHR misses
system.l3cache.demand_mshr_misses::total          761                       # number of demand (read+write) MSHR misses
system.l3cache.overall_mshr_misses::.cpu.inst          510                       # number of overall MSHR misses
system.l3cache.overall_mshr_misses::.cpu.data          251                       # number of overall MSHR misses
system.l3cache.overall_mshr_misses::total          761                       # number of overall MSHR misses
system.l3cache.ReadExReq_mshr_miss_latency::.cpu.data      8498000                       # number of ReadExReq MSHR miss cycles
system.l3cache.ReadExReq_mshr_miss_latency::total      8498000                       # number of ReadExReq MSHR miss cycles
system.l3cache.ReadSharedReq_mshr_miss_latency::.cpu.inst     34484000                       # number of ReadSharedReq MSHR miss cycles
system.l3cache.ReadSharedReq_mshr_miss_latency::.cpu.data      8599500                       # number of ReadSharedReq MSHR miss cycles
system.l3cache.ReadSharedReq_mshr_miss_latency::total     43083500                       # number of ReadSharedReq MSHR miss cycles
system.l3cache.demand_mshr_miss_latency::.cpu.inst     34484000                       # number of demand (read+write) MSHR miss cycles
system.l3cache.demand_mshr_miss_latency::.cpu.data     17097500                       # number of demand (read+write) MSHR miss cycles
system.l3cache.demand_mshr_miss_latency::total     51581500                       # number of demand (read+write) MSHR miss cycles
system.l3cache.overall_mshr_miss_latency::.cpu.inst     34484000                       # number of overall MSHR miss cycles
system.l3cache.overall_mshr_miss_latency::.cpu.data     17097500                       # number of overall MSHR miss cycles
system.l3cache.overall_mshr_miss_latency::total     51581500                       # number of overall MSHR miss cycles
system.l3cache.ReadExReq_mshr_miss_rate::.cpu.data            1                       # mshr miss rate for ReadExReq accesses
system.l3cache.ReadExReq_mshr_miss_rate::total            1                       # mshr miss rate for ReadExReq accesses
system.l3cache.ReadSharedReq_mshr_miss_rate::.cpu.inst            1                       # mshr miss rate for ReadSharedReq accesses
system.l3cache.ReadSharedReq_mshr_miss_rate::.cpu.data            1                       # mshr miss rate for ReadSharedReq accesses
system.l3cache.ReadSharedReq_mshr_miss_rate::total            1                       # mshr miss rate for ReadSharedReq accesses
system.l3cache.demand_mshr_miss_rate::.cpu.inst            1                       # mshr miss rate for demand accesses
system.l3cache.demand_mshr_miss_rate::.cpu.data            1                       # mshr miss rate for demand accesses
system.l3cache.demand_mshr_miss_rate::total            1                       # mshr miss rate for demand accesses
system.l3cache.overall_mshr_miss_rate::.cpu.inst            1                       # mshr miss rate for overall accesses
system.l3cache.overall_mshr_miss_rate::.cpu.data            1                       # mshr miss rate for overall accesses
system.l3cache.overall_mshr_miss_rate::total            1                       # mshr miss rate for overall accesses
system.l3cache.ReadExReq_avg_mshr_miss_latency::.cpu.data 65875.968992                       # average ReadExReq mshr miss latency
system.l3cache.ReadExReq_avg_mshr_miss_latency::total 65875.968992                       # average ReadExReq mshr miss latency
system.l3cache.ReadSharedReq_avg_mshr_miss_latency::.cpu.inst 67615.686275                       # average ReadSharedReq mshr miss latency
system.l3cache.ReadSharedReq_avg_mshr_miss_latency::.cpu.data 70487.704918                       # average ReadSharedReq mshr miss latency
system.l3cache.ReadSharedReq_avg_mshr_miss_latency::total 68170.094937                       # average ReadSharedReq mshr miss latency
system.l3cache.demand_avg_mshr_miss_latency::.cpu.inst 67615.686275                       # average overall mshr miss latency
system.l3cache.demand_avg_mshr_miss_latency::.cpu.data 68117.529880                       # average overall mshr miss latency
system.l3cache.demand_avg_mshr_miss_latency::total 67781.208936                       # average overall mshr miss latency
system.l3cache.overall_avg_mshr_miss_latency::.cpu.inst 67615.686275                       # average overall mshr miss latency
system.l3cache.overall_avg_mshr_miss_latency::.cpu.data 68117.529880                       # average overall mshr miss latency
system.l3cache.overall_avg_mshr_miss_latency::total 67781.208936                       # average overall mshr miss latency
system.l3cache.replacements                         0                       # number of replacements
system.membus.snoop_filter.tot_requests           761                       # Total number of requests made to the snoop filter.
system.membus.snoop_filter.hit_single_requests            0                       # Number of requests hitting in the snoop filter with a single holder of the requested data.
system.membus.snoop_filter.hit_multi_requests            0                       # Number of requests hitting in the snoop filter with multiple (>1) holders of the requested data.
system.membus.snoop_filter.tot_snoops               0                       # Total number of snoops made to the snoop filter.
system.membus.snoop_filter.hit_single_snoops            0                       # Number of snoops hitting in the snoop filter with a single holder of the requested data.
system.membus.snoop_filter.hit_multi_snoops            0                       # Number of snoops hitting in the snoop filter with multiple (>1) holders of the requested data.
system.membus.pwrStateResidencyTicks::UNDEFINED     45596500                       # Cumulative time (in ticks) in various power states
system.membus.trans_dist::ReadResp                632                       # Transaction distribution
system.membus.trans_dist::ReadExReq               129                       # Transaction distribution
system.membus.trans_dist::ReadExResp              129                       # Transaction distribution
system.membus.trans_dist::ReadSharedReq           632                       # Transaction distribution
system.membus.pkt_count_system.l3cache.mem_side::system.mem_ctrl.port         1522                       # Packet count per connected master and slave (bytes)
system.membus.pkt_count_system.l3cache.mem_side::total         1522                       # Packet count per connected master and slave (bytes)
system.membus.pkt_count::total                   1522                       # Packet count per connected master and slave (bytes)
system.membus.pkt_size_system.l3cache.mem_side::system.mem_ctrl.port        48704                       # Cumulative packet size per connected master and slave (bytes)
system.membus.pkt_size_system.l3cache.mem_side::total        48704                       # Cumulative packet size per connected master and slave (bytes)
system.membus.pkt_size::total                   48704                       # Cumulative packet size per connected master and slave (bytes)
system.membus.snoops                                0                       # Total snoops (count)
system.membus.snoopTraffic                          0                       # Total snoop traffic (bytes)
system.membus.snoop_fanout::samples               761                       # Request fanout histogram
system.membus.snoop_fanout::mean                    0                       # Request fanout histogram
system.membus.snoop_fanout::stdev                   0                       # Request fanout histogram
system.membus.snoop_fanout::underflows              0      0.00%      0.00% # Request fanout histogram
system.membus.snoop_fanout::0                     761    100.00%    100.00% # Request fanout histogram
system.membus.snoop_fanout::1                       0      0.00%    100.00% # Request fanout histogram
system.membus.snoop_fanout::overflows               0      0.00%    100.00% # Request fanout histogram
system.membus.snoop_fanout::min_value               0                       # Request fanout histogram
system.membus.snoop_fanout::max_value               0                       # Request fanout histogram
system.membus.snoop_fanout::total                 761                       # Request fanout histogram
system.membus.reqLayer0.occupancy              380500                       # Layer occupancy (ticks)
system.membus.reqLayer0.utilization               0.8                       # Layer utilization (%)
system.membus.respLayer0.occupancy            2067500                       # Layer occupancy (ticks)
system.membus.respLayer0.utilization              4.5                       # Layer utilization (%)

---------- End Simulation Statistics   ----------