
---------- Begin Simulation Statistics ----------
sim_seconds                                  0.033998                       # Number of seconds simulated
sim_ticks                                 33998214500                       # Number of ticks simulated
final_tick                                33998214500                       # Number of ticks from beginning of simulation (restored from checkpoints and never reset)
sim_freq                                 1000000000000                       # Frequency of simulated ticks
host_inst_rate                                 290606                       # Simulator instruction rate (inst/s)
host_op_rate                                   511439                       # Simulator op (including micro ops) rate (op/s)
host_tick_rate                              158015864                       # Simulator tick rate (ticks/s)
host_mem_usage                                 660688                       # Number of bytes of host memory used
host_seconds                                   215.16                       # Real time elapsed on the host
sim_insts                                    62525833                       # Number of instructions simulated
sim_ops                                     110039685                       # Number of ops (including micro ops) simulated
system.clk_domain.voltage_domain.voltage            1                       # Voltage in Volts
system.clk_domain.clock                           500                       # Clock period in ticks
system.mem_ctrl.pwrStateResidencyTicks::UNDEFINED  33998214500                       # Cumulative time (in ticks) in various power states
system.mem_ctrl.bytes_read::.cpu.inst           51392                       # Number of bytes read from this memory
system.mem_ctrl.bytes_read::.cpu.data          561920                       # Number of bytes read from this memory
system.mem_ctrl.bytes_read::total              613312                       # Number of bytes read from this memory
system.mem_ctrl.bytes_inst_read::.cpu.inst        51392                       # Number of instructions bytes read from this memory
system.mem_ctrl.bytes_inst_read::total          51392                       # Number of instructions bytes read from this memory
system.mem_ctrl.num_reads::.cpu.inst              803                       # Number of read requests responded to by this memory
system.mem_ctrl.num_reads::.cpu.data             8780                       # Number of read requests responded to by this memory
system.mem_ctrl.num_reads::total                 9583                       # Number of read requests responded to by this memory
system.mem_ctrl.bw_read::.cpu.inst            1511609                       # Total read bandwidth from this memory (bytes/s)
system.mem_ctrl.bw_read::.cpu.data           16527927                       # Total read bandwidth from this memory (bytes/s)
system.mem_ctrl.bw_read::total               18039536                       # Total read bandwidth from this memory (bytes/s)
system.mem_ctrl.bw_inst_read::.cpu.inst       1511609                       # Instruction read bandwidth from this memory (bytes/s)
system.mem_ctrl.bw_inst_read::total           1511609                       # Instruction read bandwidth from this memory (bytes/s)
system.mem_ctrl.bw_total::.cpu.inst           1511609                       # Total bandwidth to/from this memory (bytes/s)
system.mem_ctrl.bw_total::.cpu.data          16527927                       # Total bandwidth to/from this memory (bytes/s)
system.mem_ctrl.bw_total::total              18039536                       # Total bandwidth to/from this memory (bytes/s)
system.mem_ctrl.avgPriority_.cpu.inst::samples       803.00                       # Average QoS priority value for accepted requests
system.mem_ctrl.avgPriority_.cpu.data::samples      8780.00                       # Average QoS priority value for accepted requests
system.mem_ctrl.priorityMinLatency       0.000000018750                       # per QoS priority minimum request to response latency (s)
system.mem_ctrl.priorityMaxLatency       0.000001099750                       # per QoS priority maximum request to response latency (s)
system.mem_ctrl.numReadWriteTurnArounds             0                       # Number of turnarounds from READ to WRITE
system.mem_ctrl.numWriteReadTurnArounds             0                       # Number of turnarounds from WRITE to READ
system.mem_ctrl.numStayReadState                23609                       # Number of times bus staying in READ state
system.mem_ctrl.numStayWriteState                   0                       # Number of times bus staying in WRITE state
system.mem_ctrl.readReqs                         9583                       # Number of read requests accepted
system.mem_ctrl.writeReqs                           0                       # Number of write requests accepted
system.mem_ctrl.readBursts                       9583                       # Number of DRAM read bursts, including those serviced by the write queue
system.mem_ctrl.writeBursts                         0                       # Number of DRAM write bursts, including those merged in the write queue
system.mem_ctrl.bytesReadDRAM                  613312                       # Total number of bytes read from DRAM
system.mem_ctrl.bytesReadWrQ                        0                       # Total number of bytes read from write queue
system.mem_ctrl.bytesWritten                        0                       # Total number of bytes written to DRAM
system.mem_ctrl.bytesReadSys                   613312                       # Total read bytes from the system interface side
system.mem_ctrl.bytesWrittenSys                     0                       # Total written bytes from the system interface side
system.mem_ctrl.servicedByWrQ                       0                       # Number of DRAM read bursts serviced by the write queue
system.mem_ctrl.mergedWrBursts                      0                       # Number of DRAM write bursts merged with an existing one
system.mem_ctrl.neitherReadNorWriteReqs             0                       # Number of requests that are neither read nor write
system.mem_ctrl.perBankRdBursts::0                786                       # Per bank write bursts
system.mem_ctrl.perBankRdBursts::1                622                       # Per bank write bursts
system.mem_ctrl.perBankRdBursts::2                554                       # Per bank write bursts
system.mem_ctrl.perBankRdBursts::3                528                       # Per bank write bursts
system.mem_ctrl.perBankRdBursts::4                542                       # Per bank write bursts
system.mem_ctrl.perBankRdBursts::5                526                       # Per bank write bursts
system.mem_ctrl.perBankRdBursts::6                588                       # Per bank write bursts
system.mem_ctrl.perBankRdBursts::7                617                       # Per bank write bursts
system.mem_ctrl.perBankRdBursts::8                542                       # Per bank write bursts
system.mem_ctrl.perBankRdBursts::9                570                       # Per bank write bursts
system.mem_ctrl.perBankRdBursts::10               657                       # Per bank write bursts
system.mem_ctrl.perBankRdBursts::11               618                       # Per bank write bursts
system.mem_ctrl.perBankRdBursts::12               572                       # Per bank write bursts
system.mem_ctrl.perBankRdBursts::13               580                       # Per bank write bursts
system.mem_ctrl.perBankRdBursts::14               627                       # Per bank write bursts
system.mem_ctrl.perBankRdBursts::15               654                       # Per bank write bursts
system.mem_ctrl.perBankWrBursts::0                  0                       # Per bank write bursts
system.mem_ctrl.perBankWrBursts::1                  0                       # Per bank write bursts
system.mem_ctrl.perBankWrBursts::2                  0                       # Per bank write bursts
system.mem_ctrl.perBankWrBursts::3                  0                       # Per bank write bursts
system.mem_ctrl.perBankWrBursts::4                  0                       # Per bank write bursts
system.mem_ctrl.perBankWrBursts::5                  0                       # Per bank write bursts
system.mem_ctrl.perBankWrBursts::6                  0                       # Per bank write bursts
system.mem_ctrl.perBankWrBursts::7                  0                       # Per bank write bursts
system.mem_ctrl.perBankWrBursts::8                  0                       # Per bank write bursts
system.mem_ctrl.perBankWrBursts::9                  0                       # Per bank write bursts
system.mem_ctrl.perBankWrBursts::10                 0                       # Per bank write bursts
system.mem_ctrl.perBankWrBursts::11                 0                       # Per bank write bursts
system.mem_ctrl.perBankWrBursts::12                 0                       # Per bank write bursts
system.mem_ctrl.perBankWrBursts::13                 0                       # Per bank write bursts
system.mem_ctrl.perBankWrBursts::14                 0                       # Per bank write bursts
system.mem_ctrl.perBankWrBursts::15                 0                       # Per bank write bursts
system.mem_ctrl.numRdRetry                          0                       # Number of times read queue was full causing retry
system.mem_ctrl.numWrRetry                          0                       # Number of times write queue was full causing retry
system.mem_ctrl.totGap                    33998130500                       # Total gap between requests
system.mem_ctrl.readPktSize::0                      0                       # Read request sizes (log2)
system.mem_ctrl.readPktSize::1                      0                       # Read request sizes (log2)
system.mem_ctrl.readPktSize::2                      0                       # Read request sizes (log2)
system.mem_ctrl.readPktSize::3                      0                       # Read request sizes (log2)
system.mem_ctrl.readPktSize::4                      0                       # Read request sizes (log2)
system.mem_ctrl.readPktSize::5                      0                       # Read request sizes (log2)
system.mem_ctrl.readPktSize::6                   9583                       # Read request sizes (log2)
system.mem_ctrl.writePktSize::0                     0                       # Write request sizes (log2)
system.mem_ctrl.writePktSize::1                     0                       # Write request sizes (log2)
system.mem_ctrl.writePktSize::2                     0                       # Write request sizes (log2)
system.mem_ctrl.writePktSize::3                     0                       # Write request sizes (log2)
system.mem_ctrl.writePktSize::4                     0                       # Write request sizes (log2)
system.mem_ctrl.writePktSize::5                     0                       # Write request sizes (log2)
system.mem_ctrl.writePktSize::6                     0                       # Write request sizes (log2)
system.mem_ctrl.rdQLenPdf::0                     9153                       # What read queue length does an incoming req see
system.mem_ctrl.rdQLenPdf::1                      314                       # What read queue length does an incoming req see
system.mem_ctrl.rdQLenPdf::2                       84                       # What read queue length does an incoming req see
system.mem_ctrl.rdQLenPdf::3                       24                       # What read queue length does an incoming req see
system.mem_ctrl.rdQLenPdf::4                        7                       # What read queue length does an incoming req see
system.mem_ctrl.rdQLenPdf::5                        1                       # What read queue length does an incoming req see
system.mem_ctrl.rdQLenPdf::6                        0                       # What read queue length does an incoming req see
system.mem_ctrl.rdQLenPdf::7                        0                       # What read queue length does an incoming req see
system.mem_ctrl.rdQLenPdf::8                        0                       # What read queue length does an incoming req see
system.mem_ctrl.rdQLenPdf::9                        0                       # What read queue length does an incoming req see
system.mem_ctrl.rdQLenPdf::10                       0                       # What read queue length does an incoming req see
system.mem_ctrl.rdQLenPdf::11                       0                       # What read queue length does an incoming req see
system.mem_ctrl.rdQLenPdf::12                       0                       # What read queue length does an incoming req see
system.mem_ctrl.rdQLenPdf::13                       0                       # What read queue length does an incoming req see
system.mem_ctrl.rdQLenPdf::14                       0                       # What read queue length does an incoming req see
system.mem_ctrl.rdQLenPdf::15                       0                       # What read queue length does an incoming req see
system.mem_ctrl.rdQLenPdf::16                       0                       # What read queue length does an incoming req see
system.mem_ctrl.rdQLenPdf::17                       0                       # What read queue length does an incoming req see
system.mem_ctrl.rdQLenPdf::18                       0                       # What read queue length does an incoming req see
system.mem_ctrl.rdQLenPdf::19                       0                       # What read queue length does an incoming req see
system.mem_ctrl.rdQLenPdf::20                       0                       # What read queue length does an incoming req see
system.mem_ctrl.rdQLenPdf::21                       0                       # What read queue length does an incoming req see
system.mem_ctrl.rdQLenPdf::22                       0                       # What read queue length does an incoming req see
system.mem_ctrl.rdQLenPdf::23                       0                       # What read queue length does an incoming req see
system.mem_ctrl.rdQLenPdf::24                       0                       # What read queue length does an incoming req see
system.mem_ctrl.rdQLenPdf::25                       0                       # What read queue length does an incoming req see
system.mem_ctrl.rdQLenPdf::26                       0                       # What read queue length does an incoming req see
system.mem_ctrl.rdQLenPdf::27                       0                       # What read queue length does an incoming req see
system.mem_ctrl.rdQLenPdf::28                       0                       # What read queue length does an incoming req see
system.mem_ctrl.rdQLenPdf::29                       0                       # What read queue length does an incoming req see
system.mem_ctrl.rdQLenPdf::30                       0                       # What read queue length does an incoming req see
system.mem_ctrl.rdQLenPdf::31                       0                       # What read queue length does an incoming req see
system.mem_ctrl.wrQLenPdf::0                        0                       # What write queue length does an incoming req see
system.mem_ctrl.wrQLenPdf::1                        0                       # What write queue length does an incoming req see
system.mem_ctrl.wrQLenPdf::2                        0                       # What write queue length does an incoming req see
system.mem_ctrl.wrQLenPdf::3                        0                       # What write queue length does an incoming req see
system.mem_ctrl.wrQLenPdf::4                        0                       # What write queue length does an incoming req see
system.mem_ctrl.wrQLenPdf::5                        0                       # What write queue length does an incoming req see
system.mem_ctrl.wrQLenPdf::6                        0                       # What write queue length does an incoming req see
system.mem_ctrl.wrQLenPdf::7                        0                       # What write queue length does an incoming req see
system.mem_ctrl.wrQLenPdf::8                        0                       # What write queue length does an incoming req see
system.mem_ctrl.wrQLenPdf::9                        0                       # What write queue length does an incoming req see
system.mem_ctrl.wrQLenPdf::10                       0                       # What write queue length does an incoming req see
system.mem_ctrl.wrQLenPdf::11                       0                       # What write queue length does an incoming req see
system.mem_ctrl.wrQLenPdf::12                       0                       # What write queue length does an incoming req see
system.mem_ctrl.wrQLenPdf::13                       0                       # What write queue length does an incoming req see
system.mem_ctrl.wrQLenPdf::14                       0                       # What write queue length does an incoming req see
system.mem_ctrl.wrQLenPdf::15                       0                       # What write queue length does an incoming req see
system.mem_ctrl.wrQLenPdf::16                       0                       # What write queue length does an incoming req see
system.mem_ctrl.wrQLenPdf::17                       0                       # What write queue length does an incoming req see
system.mem_ctrl.wrQLenPdf::18                       0                       # What write queue length does an incoming req see
system.mem_ctrl.wrQLenPdf::19                       0                       # What write queue length does an incoming req see
system.mem_ctrl.wrQLenPdf::20                       0                       # What write queue length does an incoming req see
system.mem_ctrl.wrQLenPdf::21                       0                       # What write queue length does an incoming req see
system.mem_ctrl.wrQLenPdf::22                       0                       # What write queue length does an incoming req see
system.mem_ctrl.wrQLenPdf::23                       0                       # What write queue length does an incoming req see
system.mem_ctrl.wrQLenPdf::24                       0                       # What write queue length does an incoming req see
system.mem_ctrl.wrQLenPdf::25                       0                       # What write queue length does an incoming req see
system.mem_ctrl.wrQLenPdf::26                       0                       # What write queue length does an incoming req see
system.mem_ctrl.wrQLenPdf::27                       0                       # What write queue length does an incoming req see
system.mem_ctrl.wrQLenPdf::28                       0                       # What write queue length does an incoming req see
system.mem_ctrl.wrQLenPdf::29                       0                       # What write queue length does an incoming req see
system.mem_ctrl.wrQLenPdf::30                       0                       # What write queue length does an incoming req see
system.mem_ctrl.wrQLenPdf::31                       0                       # What write queue length does an incoming req see
system.mem_ctrl.wrQLenPdf::32                       0                       # What write queue length does an incoming req see
system.mem_ctrl.wrQLenPdf::33                       0                       # What write queue length does an incoming req see
system.mem_ctrl.wrQLenPdf::34                       0                       # What write queue length does an incoming req see
system.mem_ctrl.wrQLenPdf::35                       0                       # What write queue length does an incoming req see
system.mem_ctrl.wrQLenPdf::36                       0                       # What write queue length does an incoming req see
system.mem_ctrl.wrQLenPdf::37                       0                       # What write queue length does an incoming req see
system.mem_ctrl.wrQLenPdf::38                       0                       # What write queue length does an incoming req see
system.mem_ctrl.wrQLenPdf::39                       0                       # What write queue length does an incoming req see
system.mem_ctrl.wrQLenPdf::40                       0                       # What write queue length does an incoming req see
system.mem_ctrl.wrQLenPdf::41                       0                       # What write queue length does an incoming req see
system.mem_ctrl.wrQLenPdf::42                       0                       # What write queue length does an incoming req see
system.mem_ctrl.wrQLenPdf::43                       0                       # What write queue length does an incoming req see
system.mem_ctrl.wrQLenPdf::44                       0                       # What write queue length does an incoming req see
system.mem_ctrl.wrQLenPdf::45                       0                       # What write queue length does an incoming req see
system.mem_ctrl.wrQLenPdf::46                       0                       # What write queue length does an incoming req see
system.mem_ctrl.wrQLenPdf::47                       0                       # What write queue length does an incoming req see
system.mem_ctrl.wrQLenPdf::48                       0                       # What write queue length does an incoming req see
system.mem_ctrl.wrQLenPdf::49                       0                       # What write queue length does an incoming req see
system.mem_ctrl.wrQLenPdf::50                       0                       # What write queue length does an incoming req see
system.mem_ctrl.wrQLenPdf::51                       0                       # What write queue length does an incoming req see
system.mem_ctrl.wrQLenPdf::52                       0                       # What write queue length does an incoming req see
system.mem_ctrl.wrQLenPdf::53                       0                       # What write queue length does an incoming req see
system.mem_ctrl.wrQLenPdf::54                       0                       # What write queue length does an incoming req see
system.mem_ctrl.wrQLenPdf::55                       0                       # What write queue length does an incoming req see
system.mem_ctrl.wrQLenPdf::56                       0                       # What write queue length does an incoming req see
system.mem_ctrl.wrQLenPdf::57                       0                       # What write queue length does an incoming req see
system.mem_ctrl.wrQLenPdf::58                       0                       # What write queue length does an incoming req see
system.mem_ctrl.wrQLenPdf::59                       0                       # What write queue length does an incoming req see
system.mem_ctrl.wrQLenPdf::60                       0                       # What write queue length does an incoming req see
system.mem_ctrl.wrQLenPdf::61                       0                       # What write queue length does an incoming req see
system.mem_ctrl.wrQLenPdf::62                       0                       # What write queue length does an incoming req see
system.mem_ctrl.wrQLenPdf::63                       0                       # What write queue length does an incoming req see
system.mem_ctrl.bytesPerActivate::samples         4812                       # Bytes accessed per row activation
system.mem_ctrl.bytesPerActivate::mean     127.042394                       # Bytes accessed per row activation
system.mem_ctrl.bytesPerActivate::gmean    114.156535                       # Bytes accessed per row activation
system.mem_ctrl.bytesPerActivate::stdev     89.340040                       # Bytes accessed per row activation
system.mem_ctrl.bytesPerActivate::0-127          1134     23.57%     23.57% # Bytes accessed per row activation
system.mem_ctrl.bytesPerActivate::128-255         3509     72.92%     96.49% # Bytes accessed per row activation
system.mem_ctrl.bytesPerActivate::256-383           37      0.77%     97.26% # Bytes accessed per row activation
system.mem_ctrl.bytesPerActivate::384-511           38      0.79%     98.05% # Bytes accessed per row activation
system.mem_ctrl.bytesPerActivate::512-639           58      1.21%     99.25% # Bytes accessed per row activation
system.mem_ctrl.bytesPerActivate::640-767           12      0.25%     99.50% # Bytes accessed per row activation
system.mem_ctrl.bytesPerActivate::768-895            5      0.10%     99.61% # Bytes accessed per row activation
system.mem_ctrl.bytesPerActivate::896-1023            3      0.06%     99.67% # Bytes accessed per row activation
system.mem_ctrl.bytesPerActivate::1024-1151           16      0.33%    100.00% # Bytes accessed per row activation
system.mem_ctrl.bytesPerActivate::total          4812                       # Bytes accessed per row activation
system.mem_ctrl.masterReadBytes::.cpu.inst        51392                       # Per-master bytes read from memory
system.mem_ctrl.masterReadBytes::.cpu.data       561920                       # Per-master bytes read from memory
system.mem_ctrl.masterReadRate::.cpu.inst 1511608.793455903418                       # Per-master bytes read from memory rate (Bytes/sec)
system.mem_ctrl.masterReadRate::.cpu.data 16527926.782743252814                       # Per-master bytes read from memory rate (Bytes/sec)
system.mem_ctrl.masterReadAccesses::.cpu.inst          803                       # Per-master read serviced memory accesses
system.mem_ctrl.masterReadAccesses::.cpu.data         8780                       # Per-master read serviced memory accesses
system.mem_ctrl.masterReadTotalLat::.cpu.inst     29888500                       # Per-master read total memory access latency
system.mem_ctrl.masterReadTotalLat::.cpu.data    342707750                       # Per-master read total memory access latency
system.mem_ctrl.masterReadAvgLat::.cpu.inst     37221.05                       # Per-master read average memory access latency
system.mem_ctrl.masterReadAvgLat::.cpu.data     39032.77                       # Per-master read average memory access latency
system.mem_ctrl.totQLat                     192915000                       # Total ticks spent queuing
system.mem_ctrl.totMemAccLat                372596250                       # Total ticks spent from burst creation until serviced by the DRAM
system.mem_ctrl.totBusLat                    47915000                       # Total ticks spent in databus transfers
system.mem_ctrl.avgQLat                      20130.96                       # Average queueing delay per DRAM burst
system.mem_ctrl.avgBusLat                     5000.00                       # Average bus latency per DRAM burst
system.mem_ctrl.avgMemAccLat                 38880.96                       # Average memory access latency per DRAM burst
system.mem_ctrl.avgRdBW                         18.04                       # Average DRAM read bandwidth in MiByte/s
system.mem_ctrl.avgWrBW                          0.00                       # Average achieved write bandwidth in MiByte/s
system.mem_ctrl.avgRdBWSys                      18.04                       # Average system read bandwidth in MiByte/s
system.mem_ctrl.avgWrBWSys                       0.00                       # Average system write bandwidth in MiByte/s
system.mem_ctrl.peakBW                       12800.00                       # Theoretical peak bandwidth in MiByte/s
system.mem_ctrl.busUtil                          0.14                       # Data bus utilization in percentage
system.mem_ctrl.busUtilRead                      0.14                       # Data bus utilization in percentage for reads
system.mem_ctrl.busUtilWrite                     0.00                       # Data bus utilization in percentage for writes
system.mem_ctrl.avgRdQLen                        1.00                       # Average read queue length when enqueuing
system.mem_ctrl.avgWrQLen                        0.00                       # Average write queue length when enqueuing
system.mem_ctrl.readRowHits                      4761                       # Number of row buffer hits during reads
system.mem_ctrl.writeRowHits                        0                       # Number of row buffer hits during writes
system.mem_ctrl.readRowHitRate                  49.68                       # Row buffer hit rate for reads
system.mem_ctrl.writeRowHitRate                   nan                       # Row buffer hit rate for writes
system.mem_ctrl.avgGap                     3547754.41                       # Average gap between requests
system.mem_ctrl.pageHitRate                     49.68                       # Row buffer hit rate, read and write combined
system.mem_ctrl_0.actEnergy                  17200260                       # Energy for activate commands per rank (pJ)
system.mem_ctrl_0.preEnergy                   9119385                       # Energy for precharge commands per rank (pJ)
system.mem_ctrl_0.readEnergy                 34007820                       # Energy for read commands per rank (pJ)
system.mem_ctrl_0.writeEnergy                       0                       # Energy for write commands per rank (pJ)
system.mem_ctrl_0.refreshEnergy          1365115440.000000                       # Energy for refresh commands per rank (pJ)
system.mem_ctrl_0.actBackEnergy             317744790                       # Energy for active background per rank (pJ)
system.mem_ctrl_0.preBackEnergy              30633600                       # Energy for precharge background per rank (pJ)
system.mem_ctrl_0.actPowerDownEnergy       5494855290                       # Energy for active power-down per rank (pJ)
system.mem_ctrl_0.prePowerDownEnergy       1719043200                       # Energy for precharge power-down per rank (pJ)
system.mem_ctrl_0.selfRefreshEnergy        4018357440                       # Energy for self refresh per rank (pJ)
system.mem_ctrl_0.totalEnergy             13006167435                       # Total energy per rank (pJ)
system.mem_ctrl_0.averagePower             382.554426                       # Core power per rank (mW)
system.mem_ctrl_0.totalIdleTime           33221580500                       # Total Idle time Per DRAM Rank
system.mem_ctrl_0.memoryStateTime::IDLE      19002500                       # Time in different power states
system.mem_ctrl_0.memoryStateTime::REF      577460000                       # Time in different power states
system.mem_ctrl_0.memoryStateTime::SREF   16694631750                       # Time in different power states
system.mem_ctrl_0.memoryStateTime::PRE_PDN   4476639500                       # Time in different power states
system.mem_ctrl_0.memoryStateTime::ACT      180130750                       # Time in different power states
system.mem_ctrl_0.memoryStateTime::ACT_PDN  12050350000                       # Time in different power states
system.mem_ctrl_1.actEnergy                  17228820                       # Energy for activate commands per rank (pJ)
system.mem_ctrl_1.preEnergy                   9142155                       # Energy for precharge commands per rank (pJ)
system.mem_ctrl_1.readEnergy                 34414800                       # Energy for read commands per rank (pJ)
system.mem_ctrl_1.writeEnergy                       0                       # Energy for write commands per rank (pJ)
system.mem_ctrl_1.refreshEnergy          1390315680.000000                       # Energy for refresh commands per rank (pJ)
system.mem_ctrl_1.actBackEnergy             322333860                       # Energy for active background per rank (pJ)
system.mem_ctrl_1.preBackEnergy              32384160                       # Energy for precharge background per rank (pJ)
system.mem_ctrl_1.actPowerDownEnergy       5534913180                       # Energy for active power-down per rank (pJ)
system.mem_ctrl_1.prePowerDownEnergy       1803447840                       # Energy for precharge power-down per rank (pJ)
system.mem_ctrl_1.selfRefreshEnergy        3948743400                       # Energy for self refresh per rank (pJ)
system.mem_ctrl_1.totalEnergy             13093156335                       # Total energy per rank (pJ)
system.mem_ctrl_1.averagePower             385.113057                       # Core power per rank (mW)
system.mem_ctrl_1.totalIdleTime           33206184750                       # Total Idle time Per DRAM Rank
system.mem_ctrl_1.memoryStateTime::IDLE      23092000                       # Time in different power states
system.mem_ctrl_1.memoryStateTime::REF      588120000                       # Time in different power states
system.mem_ctrl_1.memoryStateTime::SREF   16372043500                       # Time in different power states
system.mem_ctrl_1.memoryStateTime::PRE_PDN   4696433750                       # Time in different power states
system.mem_ctrl_1.memoryStateTime::ACT      180614000                       # Time in different power states
system.mem_ctrl_1.memoryStateTime::ACT_PDN  12137911250                       # Time in different power states
system.pwrStateResidencyTicks::UNDEFINED  33998214500                       # Cumulative time (in ticks) in various power states
system.cpu.branchPred.lookups                13469304                       # Number of BP lookups
system.cpu.branchPred.condPredicted          13469304                       # Number of conditional branches predicted
system.cpu.branchPred.condIncorrect            364376                       # Number of conditional branches incorrect
system.cpu.branchPred.BTBLookups             12279277                       # Number of BTB lookups
system.cpu.branchPred.BTBHits                       0                       # Number of BTB hits
system.cpu.branchPred.BTBCorrect                    0                       # Number of correct BTB predictions (this stat may not work properly.
system.cpu.branchPred.BTBHitPct              0.000000                       # BTB Hit Percentage
system.cpu.branchPred.usedRAS                  417685                       # Number of times the RAS was used to get a target.
system.cpu.branchPred.RASInCorrect                280                       # Number of incorrect RAS predictions.
system.cpu.branchPred.indirectLookups        12279277                       # Number of indirect predictor lookups.
system.cpu.branchPred.indirectHits            5832687                       # Number of indirect target hits.
system.cpu.branchPred.indirectMisses          6446590                       # Number of indirect misses.
system.cpu.branchPredindirectMispredicted       363386                       # Number of mispredicted indirect branches.
system.cpu.dtb.walker.pwrStateResidencyTicks::UNDEFINED  33998214500                       # Cumulative time (in ticks) in various power states
system.cpu.dtb.rdAccesses                    20436216                       # TLB accesses on read requests
system.cpu.dtb.wrAccesses                     9027213                       # TLB accesses on write requests
system.cpu.dtb.rdMisses                           450                       # TLB misses on read requests
system.cpu.dtb.wrMisses                           310                       # TLB misses on write requests
system.cpu.apic_clk_domain.clock                 8000                       # Clock period in ticks
system.cpu.interrupts.pwrStateResidencyTicks::UNDEFINED  33998214500                       # Cumulative time (in ticks) in various power states
system.cpu.itb.walker.pwrStateResidencyTicks::UNDEFINED  33998214500                       # Cumulative time (in ticks) in various power states
system.cpu.itb.rdAccesses                           0                       # TLB accesses on read requests
system.cpu.itb.wrAccesses                    10031387                       # TLB accesses on write requests
system.cpu.itb.rdMisses                             0                       # TLB misses on read requests
system.cpu.itb.wrMisses                           207                       # TLB misses on write requests
system.cpu.workload.numSyscalls                    36                       # Number of system calls
system.cpu.pwrStateResidencyTicks::ON     33998214500                       # Cumulative time (in ticks) in various power states
system.cpu.numCycles                         67996430                       # number of cpu cycles simulated
system.cpu.numWorkItemsStarted                      0                       # number of work items this cpu started
system.cpu.numWorkItemsCompleted                    0                       # number of work items this cpu completed
system.cpu.fetch.icacheStallCycles             377504                       # Number of cycles fetch is stalled on an Icache miss
system.cpu.fetch.Insts                       77088687                       # Number of instructions fetch has processed
system.cpu.fetch.Branches                    13469304                       # Number of branches that fetch encountered
system.cpu.fetch.predictedBranches            6250372                       # Number of branches that fetch has predicted taken
system.cpu.fetch.Cycles                      67217067                       # Number of cycles fetch has run and was not squashing or blocked
system.cpu.fetch.SquashCycles                  729782                       # Number of cycles fetch has spent squashing
system.cpu.fetch.MiscStallCycles                  114                       # Number of cycles fetch has spent waiting on interrupts, or bad addresses, or out of MSHRs
system.cpu.fetch.PendingTrapStallCycles          1520                       # Number of stall cycles due to pending traps
system.cpu.fetch.PendingQuiesceStallCycles           12                       # Number of stall cycles due to pending quiesce instructions
system.cpu.fetch.IcacheWaitRetryStallCycles          207                       # Number of stall cycles due to full MSHR
system.cpu.fetch.CacheLines                  10031239                       # Number of cache lines fetched
system.cpu.fetch.IcacheSquashes                   573                       # Number of outstanding Icache misses that were squashed
system.cpu.fetch.rateDist::samples           67961315                       # Number of instructions fetched each cycle (Total)
system.cpu.fetch.rateDist::mean              2.011527                       # Number of instructions fetched each cycle (Total)
system.cpu.fetch.rateDist::stdev             1.880792                       # Number of instructions fetched each cycle (Total)
system.cpu.fetch.rateDist::underflows               0      0.00%      0.00% # Number of instructions fetched each cycle (Total)
system.cpu.fetch.rateDist::0                 29198752     42.96%     42.96% # Number of instructions fetched each cycle (Total)
system.cpu.fetch.rateDist::1                  2985053      4.39%     47.36% # Number of instructions fetched each cycle (Total)
system.cpu.fetch.rateDist::2                  2845499      4.19%     51.54% # Number of instructions fetched each cycle (Total)
system.cpu.fetch.rateDist::3                  3698103      5.44%     56.98% # Number of instructions fetched each cycle (Total)
system.cpu.fetch.rateDist::4                 29233908     43.02%    100.00% # Number of instructions fetched each cycle (Total)
system.cpu.fetch.rateDist::overflows                0      0.00%    100.00% # Number of instructions fetched each cycle (Total)
system.cpu.fetch.rateDist::min_value                0                       # Number of instructions fetched each cycle (Total)
system.cpu.fetch.rateDist::max_value                4                       # Number of instructions fetched each cycle (Total)
system.cpu.fetch.rateDist::total             67961315                       # Number of instructions fetched each cycle (Total)
system.cpu.fetch.branchRate                  0.198088                       # Number of branch fetches per cycle
system.cpu.fetch.rate                        1.133717                       # Number of inst fetches per cycle
system.cpu.decode.IdleCycles                  5939301                       # Number of cycles decode is idle
system.cpu.decode.BlockedCycles              28295581                       # Number of cycles decode is blocked
system.cpu.decode.RunCycles                  25830206                       # Number of cycles decode is running
system.cpu.decode.UnblockCycles               7531336                       # Number of cycles decode is unblocking
system.cpu.decode.SquashCycles                 364891                       # Number of cycles decode is squashing
system.cpu.decode.DecodedInsts              127449471                       # Number of instructions handled by decode
system.cpu.decode.SquashedInsts               1848849                       # Number of squashed instructions handled by decode
system.cpu.rename.SquashCycles                 364891                       # Number of cycles rename is squashing
system.cpu.rename.IdleCycles                 11080476                       # Number of cycles rename is idle
system.cpu.rename.BlockCycles                13144680                       # Number of cycles rename is blocking
system.cpu.rename.serializeStallCycles           3790                       # count of cycles rename stalled for serializing inst
system.cpu.rename.RunCycles                  27698710                       # Number of cycles rename is running
system.cpu.rename.UnblockCycles              15668768                       # Number of cycles rename is unblocking
system.cpu.rename.RenamedInsts              125565610                       # Number of instructions processed by rename
system.cpu.rename.SquashedInsts                816311                       # Number of squashed instructions processed by rename
system.cpu.rename.ROBFullEvents                   133                       # Number of times rename has blocked due to ROB full
system.cpu.rename.IQFullEvents                9478115                       # Number of times rename has blocked due to IQ full
system.cpu.rename.SQFullEvents                3756421                       # Number of times rename has blocked due to SQ full
system.cpu.rename.FullRegisterEvents            76894                       # Number of times there has been no free registers
system.cpu.rename.RenamedOperands           147900077                       # Number of destination operands rename has renamed
system.cpu.rename.RenameLookups             307977178                       # Number of register rename lookups that rename has made
system.cpu.rename.int_rename_lookups        192532986                       # Number of integer rename lookups
system.cpu.rename.fp_rename_lookups            363967                       # Number of floating rename lookups
system.cpu.rename.CommittedMaps             130921918                       # Number of HB maps that are committed
system.cpu.rename.UndoneMaps                 16978159                       # Number of HB maps that are undone due to squashing
system.cpu.rename.serializingInsts                 60                       # count of serializing insts renamed
system.cpu.rename.tempSerializingInsts             58                       # count of temporary serializing insts renamed
system.cpu.rename.skidInsts                  24882358                       # count of insts added to the skid buffer
system.cpu.memDep0.insertedLoads             21103724                       # Number of loads inserted to the mem dependence unit.
system.cpu.memDep0.insertedStores             9625805                       # Number of stores inserted to the mem dependence unit.
system.cpu.memDep0.conflictingLoads           6190918                       # Number of conflicting loads.
system.cpu.memDep0.conflictingStores          1276180                       # Number of conflicting stores.
system.cpu.iq.iqInstsAdded                  123505874                       # Number of instructions added to the IQ (excludes non-spec)
system.cpu.iq.iqNonSpecInstsAdded                 301                       # Number of non-speculative instructions added to the IQ
system.cpu.iq.iqInstsIssued                 119250438                       # Number of instructions issued
system.cpu.iq.iqSquashedInstsIssued            728680                       # Number of squashed instructions issued
system.cpu.iq.iqSquashedInstsExamined        13466489                       # Number of squashed instructions iterated over during squash; mainly for profiling
system.cpu.iq.iqSquashedOperandsExamined     17105150                       # Number of squashed operands that are examined and possibly removed from graph
system.cpu.iq.iqSquashedNonSpecRemoved            265                       # Number of squashed non-spec instructions that were removed
system.cpu.iq.issued_per_cycle::samples      67961315                       # Number of insts issued each cycle
system.cpu.iq.issued_per_cycle::mean         1.754681                       # Number of insts issued each cycle
system.cpu.iq.issued_per_cycle::stdev        1.394732                       # Number of insts issued each cycle
system.cpu.iq.issued_per_cycle::underflows            0      0.00%      0.00% # Number of insts issued each cycle
system.cpu.iq.issued_per_cycle::0            17153146     25.24%     25.24% # Number of insts issued each cycle
system.cpu.iq.issued_per_cycle::1            15351499     22.59%     47.83% # Number of insts issued each cycle
system.cpu.iq.issued_per_cycle::2            12143069     17.87%     65.70% # Number of insts issued each cycle
system.cpu.iq.issued_per_cycle::3            13641603     20.07%     85.77% # Number of insts issued each cycle
system.cpu.iq.issued_per_cycle::4             9671998     14.23%    100.00% # Number of insts issued each cycle
system.cpu.iq.issued_per_cycle::overflows            0      0.00%    100.00% # Number of insts issued each cycle
system.cpu.iq.issued_per_cycle::min_value            0                       # Number of insts issued each cycle
system.cpu.iq.issued_per_cycle::max_value            4                       # Number of insts issued each cycle
system.cpu.iq.issued_per_cycle::total        67961315                       # Number of insts issued each cycle
system.cpu.iq.fu_full::No_OpClass                   0      0.00%      0.00% # attempts to use FU when none available
system.cpu.iq.fu_full::IntAlu                 6162696     33.22%     33.22% # attempts to use FU when none available
system.cpu.iq.fu_full::IntMult                      0      0.00%     33.22% # attempts to use FU when none available
system.cpu.iq.fu_full::IntDiv                       0      0.00%     33.22% # attempts to use FU when none available
system.cpu.iq.fu_full::FloatAdd                     0      0.00%     33.22% # attempts to use FU when none available
system.cpu.iq.fu_full::FloatCmp                     0      0.00%     33.22% # attempts to use FU when none available
system.cpu.iq.fu_full::FloatCvt                     0      0.00%     33.22% # attempts to use FU when none available
system.cpu.iq.fu_full::FloatMult                    0      0.00%     33.22% # attempts to use FU when none available
system.cpu.iq.fu_full::FloatMultAcc                 0      0.00%     33.22% # attempts to use FU when none available
system.cpu.iq.fu_full::FloatDiv                     0      0.00%     33.22% # attempts to use FU when none available
system.cpu.iq.fu_full::FloatMisc                    0      0.00%     33.22% # attempts to use FU when none available
system.cpu.iq.fu_full::FloatSqrt                    0      0.00%     33.22% # attempts to use FU when none available
system.cpu.iq.fu_full::SimdAdd                    264      0.00%     33.22% # attempts to use FU when none available
system.cpu.iq.fu_full::SimdAddAcc                   0      0.00%     33.22% # attempts to use FU when none available
system.cpu.iq.fu_full::SimdAlu                     70      0.00%     33.22% # attempts to use FU when none available
system.cpu.iq.fu_full::SimdCmp                      0      0.00%     33.22% # attempts to use FU when none available
system.cpu.iq.fu_full::SimdCvt                     64      0.00%     33.22% # attempts to use FU when none available
system.cpu.iq.fu_full::SimdMisc                   147      0.00%     33.22% # attempts to use FU when none available
system.cpu.iq.fu_full::SimdMult                     0      0.00%     33.22% # attempts to use FU when none available
system.cpu.iq.fu_full::SimdMultAcc                  0      0.00%     33.22% # attempts to use FU when none available
system.cpu.iq.fu_full::SimdShift                  124      0.00%     33.22% # attempts to use FU when none available
system.cpu.iq.fu_full::SimdShiftAcc                 0      0.00%     33.22% # attempts to use FU when none available
system.cpu.iq.fu_full::SimdSqrt                     0      0.00%     33.22% # attempts to use FU when none available
system.cpu.iq.fu_full::SimdFloatAdd                 0      0.00%     33.22% # attempts to use FU when none available
system.cpu.iq.fu_full::SimdFloatAlu                 0      0.00%     33.22% # attempts to use FU when none available
system.cpu.iq.fu_full::SimdFloatCmp                 0      0.00%     33.22% # attempts to use FU when none available
system.cpu.iq.fu_full::SimdFloatCvt                 0      0.00%     33.22% # attempts to use FU when none available
system.cpu.iq.fu_full::SimdFloatDiv                 0      0.00%     33.22% # attempts to use FU when none available
system.cpu.iq.fu_full::SimdFloatMisc                0      0.00%     33.22% # attempts to use FU when none available
system.cpu.iq.fu_full::SimdFloatMult                0      0.00%     33.22% # attempts to use FU when none available
system.cpu.iq.fu_full::SimdFloatMultAcc             0      0.00%     33.22% # attempts to use FU when none available
system.cpu.iq.fu_full::SimdFloatSqrt                0      0.00%     33.22% # attempts to use FU when none available
system.cpu.iq.fu_full::SimdAes                      0      0.00%     33.22% # attempts to use FU when none available
system.cpu.iq.fu_full::SimdAesMix                   0      0.00%     33.22% # attempts to use FU when none available
system.cpu.iq.fu_full::SimdSha1Hash                 0      0.00%     33.22% # attempts to use FU when none available
system.cpu.iq.fu_full::SimdSha1Hash2                0      0.00%     33.22% # attempts to use FU when none available
system.cpu.iq.fu_full::SimdSha256Hash               0      0.00%     33.22% # attempts to use FU when none available
system.cpu.iq.fu_full::SimdSha256Hash2              0      0.00%     33.22% # attempts to use FU when none available
system.cpu.iq.fu_full::SimdShaSigma2                0      0.00%     33.22% # attempts to use FU when none available
system.cpu.iq.fu_full::SimdShaSigma3                0      0.00%     33.22% # attempts to use FU when none available
system.cpu.iq.fu_full::MemRead               10092462     54.40%     87.63% # attempts to use FU when none available
system.cpu.iq.fu_full::MemWrite               2295260     12.37%    100.00% # attempts to use FU when none available
system.cpu.iq.fu_full::FloatMemRead                 0      0.00%    100.00% # attempts to use FU when none available
system.cpu.iq.fu_full::FloatMemWrite                0      0.00%    100.00% # attempts to use FU when none available
system.cpu.iq.fu_full::IprAccess                    0      0.00%    100.00% # attempts to use FU when none available
system.cpu.iq.fu_full::InstPrefetch                 0      0.00%    100.00% # attempts to use FU when none available
system.cpu.iq.FU_type_0::No_OpClass            275052      0.23%      0.23% # Type of FU issued
system.cpu.iq.FU_type_0::IntAlu              88464036     74.18%     74.41% # Type of FU issued
system.cpu.iq.FU_type_0::IntMult               646200      0.54%     74.96% # Type of FU issued
system.cpu.iq.FU_type_0::IntDiv                    31      0.00%     74.96% # Type of FU issued
system.cpu.iq.FU_type_0::FloatAdd               98679      0.08%     75.04% # Type of FU issued
system.cpu.iq.FU_type_0::FloatCmp                   0      0.00%     75.04% # Type of FU issued
system.cpu.iq.FU_type_0::FloatCvt                   0      0.00%     75.04% # Type of FU issued
system.cpu.iq.FU_type_0::FloatMult                  0      0.00%     75.04% # Type of FU issued
system.cpu.iq.FU_type_0::FloatMultAcc               0      0.00%     75.04% # Type of FU issued
system.cpu.iq.FU_type_0::FloatDiv                   0      0.00%     75.04% # Type of FU issued
system.cpu.iq.FU_type_0::FloatMisc                  0      0.00%     75.04% # Type of FU issued
system.cpu.iq.FU_type_0::FloatSqrt                  0      0.00%     75.04% # Type of FU issued
system.cpu.iq.FU_type_0::SimdAdd                  376      0.00%     75.04% # Type of FU issued
system.cpu.iq.FU_type_0::SimdAddAcc                 0      0.00%     75.04% # Type of FU issued
system.cpu.iq.FU_type_0::SimdAlu                   99      0.00%     75.04% # Type of FU issued
system.cpu.iq.FU_type_0::SimdCmp                    0      0.00%     75.04% # Type of FU issued
system.cpu.iq.FU_type_0::SimdCvt                  148      0.00%     75.04% # Type of FU issued
system.cpu.iq.FU_type_0::SimdMisc                 258      0.00%     75.04% # Type of FU issued
system.cpu.iq.FU_type_0::SimdMult                   0      0.00%     75.04% # Type of FU issued
system.cpu.iq.FU_type_0::SimdMultAcc                0      0.00%     75.04% # Type of FU issued
system.cpu.iq.FU_type_0::SimdShift                186      0.00%     75.04% # Type of FU issued
system.cpu.iq.FU_type_0::SimdShiftAcc               0      0.00%     75.04% # Type of FU issued
system.cpu.iq.FU_type_0::SimdSqrt                   0      0.00%     75.04% # Type of FU issued
system.cpu.iq.FU_type_0::SimdFloatAdd               0      0.00%     75.04% # Type of FU issued
system.cpu.iq.FU_type_0::SimdFloatAlu               0      0.00%     75.04% # Type of FU issued
system.cpu.iq.FU_type_0::SimdFloatCmp               0      0.00%     75.04% # Type of FU issued
system.cpu.iq.FU_type_0::SimdFloatCvt               0      0.00%     75.04% # Type of FU issued
system.cpu.iq.FU_type_0::SimdFloatDiv               0      0.00%     75.04% # Type of FU issued
system.cpu.iq.FU_type_0::SimdFloatMisc              0      0.00%     75.04% # Type of FU issued
system.cpu.iq.FU_type_0::SimdFloatMult              0      0.00%     75.04% # Type of FU issued
system.cpu.iq.FU_type_0::SimdFloatMultAcc            0      0.00%     75.04% # Type of FU issued
system.cpu.iq.FU_type_0::SimdFloatSqrt              0      0.00%     75.04% # Type of FU issued
system.cpu.iq.FU_type_0::SimdAes                    0      0.00%     75.04% # Type of FU issued
system.cpu.iq.FU_type_0::SimdAesMix                 0      0.00%     75.04% # Type of FU issued
system.cpu.iq.FU_type_0::SimdSha1Hash               0      0.00%     75.04% # Type of FU issued
system.cpu.iq.FU_type_0::SimdSha1Hash2              0      0.00%     75.04% # Type of FU issued
system.cpu.iq.FU_type_0::SimdSha256Hash             0      0.00%     75.04% # Type of FU issued
system.cpu.iq.FU_type_0::SimdSha256Hash2            0      0.00%     75.04% # Type of FU issued
system.cpu.iq.FU_type_0::SimdShaSigma2              0      0.00%     75.04% # Type of FU issued
system.cpu.iq.FU_type_0::SimdShaSigma3              0      0.00%     75.04% # Type of FU issued
system.cpu.iq.FU_type_0::MemRead             20317671     17.04%     92.08% # Type of FU issued
system.cpu.iq.FU_type_0::MemWrite             8850449      7.42%     99.50% # Type of FU issued
system.cpu.iq.FU_type_0::FloatMemRead          301432      0.25%     99.75% # Type of FU issued
system.cpu.iq.FU_type_0::FloatMemWrite         295821      0.25%    100.00% # Type of FU issued
system.cpu.iq.FU_type_0::IprAccess                  0      0.00%    100.00% # Type of FU issued
system.cpu.iq.FU_type_0::InstPrefetch               0      0.00%    100.00% # Type of FU issued
system.cpu.iq.FU_type_0::total              119250438                       # Type of FU issued
system.cpu.iq.rate                           1.753775                       # Inst issue rate
system.cpu.iq.fu_busy_cnt                    18551087                       # FU busy when requested
system.cpu.iq.fu_busy_rate                   0.155564                       # FU busy rate (busy events/executed inst)
system.cpu.iq.int_inst_queue_reads          324305717                       # Number of integer instruction queue reads
system.cpu.iq.int_inst_queue_writes         135968403                       # Number of integer instruction queue writes
system.cpu.iq.int_inst_queue_wakeup_accesses    116387258                       # Number of integer instruction queue wakeup accesses
system.cpu.iq.fp_inst_queue_reads             1436241                       # Number of floating instruction queue reads
system.cpu.iq.fp_inst_queue_writes            1004712                       # Number of floating instruction queue writes
system.cpu.iq.fp_inst_queue_wakeup_accesses       691466                       # Number of floating instruction queue wakeup accesses
system.cpu.iq.vec_inst_queue_reads                  0                       # Number of vector instruction queue reads
system.cpu.iq.vec_inst_queue_writes                 0                       # Number of vector instruction queue writes
system.cpu.iq.vec_inst_queue_wakeup_accesses            0                       # Number of vector instruction queue wakeup accesses
system.cpu.iq.int_alu_accesses              136828272                       # Number of integer alu accesses
system.cpu.iq.fp_alu_accesses                  698201                       # Number of floating point alu accesses
system.cpu.iq.vec_alu_accesses                      0                       # Number of vector alu accesses
system.cpu.iew.lsq.thread0.forwLoads          2774855                       # Number of loads that had data forwarded from stores
system.cpu.iew.lsq.thread0.invAddrLoads             0                       # Number of loads ignored due to an invalid address
system.cpu.iew.lsq.thread0.squashedLoads      2053842                       # Number of loads squashed
system.cpu.iew.lsq.thread0.ignoredResponses          746                       # Number of memory responses ignored because the instruction is squashed
system.cpu.iew.lsq.thread0.memOrderViolation          454                       # Number of memory ordering violations
system.cpu.iew.lsq.thread0.squashedStores       974281                       # Number of stores squashed
system.cpu.iew.lsq.thread0.invAddrSwpfs             0                       # Number of software prefetches ignored due to an invalid address
system.cpu.iew.lsq.thread0.blockedLoads             0                       # Number of blocked loads due to partial load-store forwarding
system.cpu.iew.lsq.thread0.rescheduledLoads            0                       # Number of loads that were rescheduled
system.cpu.iew.lsq.thread0.cacheBlocked            64                       # Number of times an access to memory failed due to the cache being blocked
system.cpu.iew.iewIdleCycles                        0                       # Number of cycles IEW is idle
system.cpu.iew.iewSquashCycles                 364891                       # Number of cycles IEW is squashing
system.cpu.iew.iewBlockCycles                 2382372                       # Number of cycles IEW is blocking
system.cpu.iew.iewUnblockCycles               1243426                       # Number of cycles IEW is unblocking
system.cpu.iew.iewDispatchedInsts           123506175                       # Number of instructions dispatched to IQ
system.cpu.iew.iewDispSquashedInsts            452378                       # Number of squashed instructions skipped by dispatch
system.cpu.iew.iewDispLoadInsts              21103724                       # Number of dispatched load instructions
system.cpu.iew.iewDispStoreInsts              9625805                       # Number of dispatched store instructions
system.cpu.iew.iewDispNonSpecInsts                131                       # Number of dispatched non-speculative instructions
system.cpu.iew.iewIQFullEvents                 803222                       # Number of times the IQ has become full, causing a stall
system.cpu.iew.iewLSQFullEvents                  6413                       # Number of times the LSQ has become full, causing a stall
system.cpu.iew.memOrderViolationEvents            454                       # Number of memory order violations
system.cpu.iew.predictedTakenIncorrect            883                       # Number of branches that were predicted taken incorrectly
system.cpu.iew.predictedNotTakenIncorrect       394079                       # Number of branches that were predicted not taken incorrectly
system.cpu.iew.branchMispredicts               394962                       # Number of branch mispredicts detected at execute
system.cpu.iew.iewExecutedInsts             117431205                       # Number of executed instructions
system.cpu.iew.iewExecLoadInsts              20436203                       # Number of load instructions executed
system.cpu.iew.iewExecSquashedInsts           1819233                       # Number of squashed instructions skipped in execute
system.cpu.iew.exec_swp                             0                       # number of swp insts executed
system.cpu.iew.exec_nop                             0                       # number of nop insts executed
system.cpu.iew.exec_refs                     29460720                       # number of memory reference insts executed
system.cpu.iew.exec_branches                 11026010                       # Number of branches executed
system.cpu.iew.exec_stores                    9024517                       # Number of stores executed
system.cpu.iew.exec_rate                     1.727020                       # Inst execution rate
system.cpu.iew.wb_sent                      117173846                       # cumulative count of insts sent to commit
system.cpu.iew.wb_count                     117078724                       # cumulative count of insts written-back
system.cpu.iew.wb_producers                  87724086                       # num instructions producing a value
system.cpu.iew.wb_consumers                 126812107                       # num instructions consuming a value
system.cpu.iew.wb_rate                       1.721836                       # insts written-back per cycle
system.cpu.iew.wb_fanout                     0.691764                       # average fanout of values written-back
system.cpu.commit.commitSquashedInsts        12334930                       # The number of squashed insts skipped by commit
system.cpu.commit.commitNonSpecStalls              36                       # The number of times commit has been forced to stall to communicate backwards
system.cpu.commit.branchMispredicts            364458                       # The number of times a branch was mispredicted
system.cpu.commit.committed_per_cycle::samples     67398585                       # Number of insts commited each cycle
system.cpu.commit.committed_per_cycle::mean     1.632671                       # Number of insts commited each cycle
system.cpu.commit.committed_per_cycle::stdev     1.706818                       # Number of insts commited each cycle
system.cpu.commit.committed_per_cycle::underflows            0      0.00%      0.00% # Number of insts commited each cycle
system.cpu.commit.committed_per_cycle::0     29114092     43.20%     43.20% # Number of insts commited each cycle
system.cpu.commit.committed_per_cycle::1      9345807     13.87%     57.06% # Number of insts commited each cycle
system.cpu.commit.committed_per_cycle::2      4533622      6.73%     63.79% # Number of insts commited each cycle
system.cpu.commit.committed_per_cycle::3      5993622      8.89%     72.68% # Number of insts commited each cycle
system.cpu.commit.committed_per_cycle::4     18411442     27.32%    100.00% # Number of insts commited each cycle
system.cpu.commit.committed_per_cycle::overflows            0      0.00%    100.00% # Number of insts commited each cycle
system.cpu.commit.committed_per_cycle::min_value            0                       # Number of insts commited each cycle
system.cpu.commit.committed_per_cycle::max_value            4                       # Number of insts commited each cycle
system.cpu.commit.committed_per_cycle::total     67398585                       # Number of insts commited each cycle
system.cpu.commit.committedInsts             62525833                       # Number of instructions committed
system.cpu.commit.committedOps              110039685                       # Number of ops (including micro ops) committed
system.cpu.commit.swp_count                         0                       # Number of s/w prefetches committed
system.cpu.commit.refs                       27701406                       # Number of memory references committed
system.cpu.commit.loads                      19049882                       # Number of loads committed
system.cpu.commit.membars                           0                       # Number of memory barriers committed
system.cpu.commit.branches                   10575287                       # Number of branches committed
system.cpu.commit.vec_insts                         0                       # Number of committed Vector instructions.
system.cpu.commit.fp_insts                     591928                       # Number of committed floating point instructions.
system.cpu.commit.int_insts                 109906472                       # Number of committed integer instructions.
system.cpu.commit.function_calls               329514                       # Number of function calls committed.
system.cpu.commit.op_class_0::No_OpClass        66156      0.06%      0.06% # Class of committed instruction
system.cpu.commit.op_class_0::IntAlu         81559305     74.12%     74.18% # Class of committed instruction
system.cpu.commit.op_class_0::IntMult          646190      0.59%     74.77% # Class of committed instruction
system.cpu.commit.op_class_0::IntDiv               28      0.00%     74.77% # Class of committed instruction
system.cpu.commit.op_class_0::FloatAdd          65551      0.06%     74.83% # Class of committed instruction
system.cpu.commit.op_class_0::FloatCmp              0      0.00%     74.83% # Class of committed instruction
system.cpu.commit.op_class_0::FloatCvt              0      0.00%     74.83% # Class of committed instruction
system.cpu.commit.op_class_0::FloatMult             0      0.00%     74.83% # Class of committed instruction
system.cpu.commit.op_class_0::FloatMultAcc            0      0.00%     74.83% # Class of committed instruction
system.cpu.commit.op_class_0::FloatDiv              0      0.00%     74.83% # Class of committed instruction
system.cpu.commit.op_class_0::FloatMisc             0      0.00%     74.83% # Class of committed instruction
system.cpu.commit.op_class_0::FloatSqrt             0      0.00%     74.83% # Class of committed instruction
system.cpu.commit.op_class_0::SimdAdd             374      0.00%     74.83% # Class of committed instruction
system.cpu.commit.op_class_0::SimdAddAcc            0      0.00%     74.83% # Class of committed instruction
system.cpu.commit.op_class_0::SimdAlu              94      0.00%     74.83% # Class of committed instruction
system.cpu.commit.op_class_0::SimdCmp               0      0.00%     74.83% # Class of committed instruction
system.cpu.commit.op_class_0::SimdCvt             140      0.00%     74.83% # Class of committed instruction
system.cpu.commit.op_class_0::SimdMisc            255      0.00%     74.83% # Class of committed instruction
system.cpu.commit.op_class_0::SimdMult              0      0.00%     74.83% # Class of committed instruction
system.cpu.commit.op_class_0::SimdMultAcc            0      0.00%     74.83% # Class of committed instruction
system.cpu.commit.op_class_0::SimdShift           186      0.00%     74.83% # Class of committed instruction
system.cpu.commit.op_class_0::SimdShiftAcc            0      0.00%     74.83% # Class of committed instruction
system.cpu.commit.op_class_0::SimdSqrt              0      0.00%     74.83% # Class of committed instruction
system.cpu.commit.op_class_0::SimdFloatAdd            0      0.00%     74.83% # Class of committed instruction
system.cpu.commit.op_class_0::SimdFloatAlu            0      0.00%     74.83% # Class of committed instruction
system.cpu.commit.op_class_0::SimdFloatCmp            0      0.00%     74.83% # Class of committed instruction
system.cpu.commit.op_class_0::SimdFloatCvt            0      0.00%     74.83% # Class of committed instruction
system.cpu.commit.op_class_0::SimdFloatDiv            0      0.00%     74.83% # Class of committed instruction
system.cpu.commit.op_class_0::SimdFloatMisc            0      0.00%     74.83% # Class of committed instruction
system.cpu.commit.op_class_0::SimdFloatMult            0      0.00%     74.83% # Class of committed instruction
system.cpu.commit.op_class_0::SimdFloatMultAcc            0      0.00%     74.83% # Class of committed instruction
system.cpu.commit.op_class_0::SimdFloatSqrt            0      0.00%     74.83% # Class of committed instruction
system.cpu.commit.op_class_0::SimdAes               0      0.00%     74.83% # Class of committed instruction
system.cpu.commit.op_class_0::SimdAesMix            0      0.00%     74.83% # Class of committed instruction
system.cpu.commit.op_class_0::SimdSha1Hash            0      0.00%     74.83% # Class of committed instruction
system.cpu.commit.op_class_0::SimdSha1Hash2            0      0.00%     74.83% # Class of committed instruction
system.cpu.commit.op_class_0::SimdSha256Hash            0      0.00%     74.83% # Class of committed instruction
system.cpu.commit.op_class_0::SimdSha256Hash2            0      0.00%     74.83% # Class of committed instruction
system.cpu.commit.op_class_0::SimdShaSigma2            0      0.00%     74.83% # Class of committed instruction
system.cpu.commit.op_class_0::SimdShaSigma3            0      0.00%     74.83% # Class of committed instruction
system.cpu.commit.op_class_0::MemRead        18787650     17.07%     91.90% # Class of committed instruction
system.cpu.commit.op_class_0::MemWrite        8388953      7.62%     99.52% # Class of committed instruction
system.cpu.commit.op_class_0::FloatMemRead       262232      0.24%     99.76% # Class of committed instruction
system.cpu.commit.op_class_0::FloatMemWrite       262571      0.24%    100.00% # Class of committed instruction
system.cpu.commit.op_class_0::IprAccess             0      0.00%    100.00% # Class of committed instruction
system.cpu.commit.op_class_0::InstPrefetch            0      0.00%    100.00% # Class of committed instruction
system.cpu.commit.op_class_0::total         110039685                       # Class of committed instruction
system.cpu.commit.bw_lim_events              18411442                       # number cycles where commit BW limit reached
system.cpu.rob.rob_reads                    171361758                       # The number of ROB reads
system.cpu.rob.rob_writes                   245311961                       # The number of ROB writes
system.cpu.timesIdled                             430                       # Number of times that the entire CPU went into an idle state and unscheduled itself
system.cpu.idleCycles                           35115                       # Total number of cycles that the CPU has spent unscheduled due to idling
system.cpu.committedInsts                    62525833                       # Number of Instructions Simulated
system.cpu.committedOps                     110039685                       # Number of Ops (including micro ops) Simulated
system.cpu.cpi                               1.087493                       # CPI: Cycles Per Instruction
system.cpu.cpi_total                         1.087493                       # CPI: Total CPI of All Threads
system.cpu.ipc                               0.919546                       # IPC: Instructions Per Cycle
system.cpu.ipc_total                         0.919546                       # IPC: Total IPC of All Threads
system.cpu.int_regfile_reads                178706565                       # number of integer regfile reads
system.cpu.int_regfile_writes                97131788                       # number of integer regfile writes
system.cpu.fp_regfile_reads                    299412                       # number of floating regfile reads
system.cpu.fp_regfile_writes                   395612                       # number of floating regfile writes
system.cpu.cc_regfile_reads                  52274902                       # number of cc regfile reads
system.cpu.cc_regfile_writes                 40816793                       # number of cc regfile writes
system.cpu.misc_regfile_reads                52887024                       # number of misc regfile reads
system.cpu.dcache.tags.pwrStateResidencyTicks::UNDEFINED  33998214500                       # Cumulative time (in ticks) in various power states
system.cpu.dcache.tags.tagsinuse           511.362174                       # Cycle average of tags in use
system.cpu.dcache.tags.total_refs            26311663                       # Total number of references to valid blocks.
system.cpu.dcache.tags.sampled_refs             15265                       # Sample count of references to valid blocks.
system.cpu.dcache.tags.avg_refs           1723.659548                       # Average number of references to valid blocks.
system.cpu.dcache.tags.warmup_cycle            169500                       # Cycle when the warmup percentage was hit.
system.cpu.dcache.tags.occ_blocks::.cpu.data   511.362174                       # Average occupied blocks per requestor
system.cpu.dcache.tags.occ_percent::.cpu.data     0.998754                       # Average percentage of cache occupancy
system.cpu.dcache.tags.occ_percent::total     0.998754                       # Average percentage of cache occupancy
system.cpu.dcache.tags.occ_task_id_blocks::1024          512                       # Occupied blocks per task id
system.cpu.dcache.tags.age_task_id_blocks_1024::0          152                       # Occupied blocks per task id
system.cpu.dcache.tags.age_task_id_blocks_1024::1          358                       # Occupied blocks per task id
system.cpu.dcache.tags.age_task_id_blocks_1024::4            2                       # Occupied blocks per task id
system.cpu.dcache.tags.occ_task_id_percent::1024            1                       # Percentage of cache occupancy per task id
system.cpu.dcache.tags.tag_accesses         210516705                       # Number of tag accesses
system.cpu.dcache.tags.data_accesses        210516705                       # Number of data accesses
system.cpu.dcache.pwrStateResidencyTicks::UNDEFINED  33998214500                       # Cumulative time (in ticks) in various power states
system.cpu.dcache.ReadReq_hits::.cpu.data     17653888                       # number of ReadReq hits
system.cpu.dcache.ReadReq_hits::total        17653888                       # number of ReadReq hits
system.cpu.dcache.WriteReq_hits::.cpu.data      8641942                       # number of WriteReq hits
system.cpu.dcache.WriteReq_hits::total        8641942                       # number of WriteReq hits
system.cpu.dcache.demand_hits::.cpu.data     26295830                       # number of demand (read+write) hits
system.cpu.dcache.demand_hits::total         26295830                       # number of demand (read+write) hits
system.cpu.dcache.overall_hits::.cpu.data     26295830                       # number of overall hits
system.cpu.dcache.overall_hits::total        26295830                       # number of overall hits
system.cpu.dcache.ReadReq_misses::.cpu.data         7268                       # number of ReadReq misses
system.cpu.dcache.ReadReq_misses::total          7268                       # number of ReadReq misses
system.cpu.dcache.WriteReq_misses::.cpu.data         9582                       # number of WriteReq misses
system.cpu.dcache.WriteReq_misses::total         9582                       # number of WriteReq misses
system.cpu.dcache.demand_misses::.cpu.data        16850                       # number of demand (read+write) misses
system.cpu.dcache.demand_misses::total          16850                       # number of demand (read+write) misses
system.cpu.dcache.overall_misses::.cpu.data        16850                       # number of overall misses
system.cpu.dcache.overall_misses::total         16850                       # number of overall misses
system.cpu.dcache.ReadReq_miss_latency::.cpu.data    245256500                       # number of ReadReq miss cycles
system.cpu.dcache.ReadReq_miss_latency::total    245256500                       # number of ReadReq miss cycles
system.cpu.dcache.WriteReq_miss_latency::.cpu.data    770725499                       # number of WriteReq miss cycles
system.cpu.dcache.WriteReq_miss_latency::total    770725499                       # number of WriteReq miss cycles
system.cpu.dcache.demand_miss_latency::.cpu.data   1015981999                       # number of demand (read+write) miss cycles
system.cpu.dcache.demand_miss_latency::total   1015981999                       # number of demand (read+write) miss cycles
system.cpu.dcache.overall_miss_latency::.cpu.data   1015981999                       # number of overall miss cycles
system.cpu.dcache.overall_miss_latency::total   1015981999                       # number of overall miss cycles
system.cpu.dcache.ReadReq_accesses::.cpu.data     17661156                       # number of ReadReq accesses(hits+misses)
system.cpu.dcache.ReadReq_accesses::total     17661156                       # number of ReadReq accesses(hits+misses)
system.cpu.dcache.WriteReq_accesses::.cpu.data      8651524                       # number of WriteReq accesses(hits+misses)
system.cpu.dcache.WriteReq_accesses::total      8651524                       # number of WriteReq accesses(hits+misses)
system.cpu.dcache.demand_accesses::.cpu.data     26312680                       # number of demand (read+write) accesses
system.cpu.dcache.demand_accesses::total     26312680                       # number of demand (read+write) accesses
system.cpu.dcache.overall_accesses::.cpu.data     26312680                       # number of overall (read+write) accesses
system.cpu.dcache.overall_accesses::total     26312680                       # number of overall (read+write) accesses
system.cpu.dcache.ReadReq_miss_rate::.cpu.data     0.000412                       # miss rate for ReadReq accesses
system.cpu.dcache.ReadReq_miss_rate::total     0.000412                       # miss rate for ReadReq accesses
system.cpu.dcache.WriteReq_miss_rate::.cpu.data     0.001108                       # miss rate for WriteReq accesses
system.cpu.dcache.WriteReq_miss_rate::total     0.001108                       # miss rate for WriteReq accesses
system.cpu.dcache.demand_miss_rate::.cpu.data     0.000640                       # miss rate for demand accesses
system.cpu.dcache.demand_miss_rate::total     0.000640                       # miss rate for demand accesses
system.cpu.dcache.overall_miss_rate::.cpu.data     0.000640                       # miss rate for overall accesses
system.cpu.dcache.overall_miss_rate::total     0.000640                       # miss rate for overall accesses
[...]
system.l3cache.tags.occ_percent::.cpu.data     0.147695                       # Average percentage of cache occupancy
system.l3cache.tags.occ_percent::total       0.169241                       # Average percentage of cache occupancy
system.l3cache.tags.occ_task_id_blocks::1024         9583                       # Occupied blocks per task id
system.l3cache.tags.age_task_id_blocks_1024::0           65                       # Occupied blocks per task id
system.l3cache.tags.age_task_id_blocks_1024::1           28                       # Occupied blocks per task id
system.l3cache.tags.age_task_id_blocks_1024::2          211                       # Occupied blocks per task id
system.l3cache.tags.age_task_id_blocks_1024::3         2095                       # Occupied blocks per task id
system.l3cache.tags.age_task_id_blocks_1024::4         7184                       # Occupied blocks per task id
system.l3cache.tags.occ_task_id_percent::1024     0.292450                       # Percentage of cache occupancy per task id
system.l3cache.tags.tag_accesses               394479                       # Number of tag accesses
system.l3cache.tags.data_accesses              394479                       # Number of data accesses
system.l3cache.pwrStateResidencyTicks::UNDEFINED  33998214500                       # Cumulative time (in ticks) in various power states
system.l3cache.WritebackDirty_hits::.writebacks         9485                       # number of WritebackDirty hits
system.l3cache.WritebackDirty_hits::total         9485                       # number of WritebackDirty hits
system.l3cache.ReadExReq_hits::.cpu.data          313                       # number of ReadExReq hits
system.l3cache.ReadExReq_hits::total              313                       # number of ReadExReq hits
system.l3cache.ReadSharedReq_hits::.cpu.inst           18                       # number of ReadSharedReq hits
system.l3cache.ReadSharedReq_hits::.cpu.data         4657                       # number of ReadSharedReq hits
system.l3cache.ReadSharedReq_hits::total         4675                       # number of ReadSharedReq hits
system.l3cache.demand_hits::.cpu.inst              18                       # number of demand (read+write) hits
system.l3cache.demand_hits::.cpu.data            4970                       # number of demand (read+write) hits
system.l3cache.demand_hits::total                4988                       # number of demand (read+write) hits
system.l3cache.overall_hits::.cpu.inst             18                       # number of overall hits
system.l3cache.overall_hits::.cpu.data           4970                       # number of overall hits
system.l3cache.overall_hits::total               4988                       # number of overall hits
system.l3cache.ReadExReq_misses::.cpu.data         8487                       # number of ReadExReq misses
system.l3cache.ReadExReq_misses::total           8487                       # number of ReadExReq misses
system.l3cache.ReadSharedReq_misses::.cpu.inst          803                       # number of ReadSharedReq misses
system.l3cache.ReadSharedReq_misses::.cpu.data          293                       # number of ReadSharedReq misses
system.l3cache.ReadSharedReq_misses::total         1096                       # number of ReadSharedReq misses
system.l3cache.demand_misses::.cpu.inst           803                       # number of demand (read+write) misses
system.l3cache.demand_misses::.cpu.data          8780                       # number of demand (read+write) misses
system.l3cache.demand_misses::total              9583                       # number of demand (read+write) misses
system.l3cache.overall_misses::.cpu.inst          803                       # number of overall misses
system.l3cache.overall_misses::.cpu.data         8780                       # number of overall misses
system.l3cache.overall_misses::total             9583                       # number of overall misses
system.l3cache.ReadExReq_miss_latency::.cpu.data    639078500                       # number of ReadExReq miss cycles
system.l3cache.ReadExReq_miss_latency::total    639078500                       # number of ReadExReq miss cycles
system.l3cache.ReadSharedReq_miss_latency::.cpu.inst     59772500                       # number of ReadSharedReq miss cycles
system.l3cache.ReadSharedReq_miss_latency::.cpu.data     29581000                       # number of ReadSharedReq miss cycles
system.l3cache.ReadSharedReq_miss_latency::total     89353500                       # number of ReadSharedReq miss cycles
system.l3cache.demand_miss_latency::.cpu.inst     59772500                       # number of demand (read+write) miss cycles
system.l3cache.demand_miss_latency::.cpu.data    668659500                       # number of demand (read+write) miss cycles
system.l3cache.demand_miss_latency::total    728432000                       # number of demand (read+write) miss cycles
system.l3cache.overall_miss_latency::.cpu.inst     59772500                       # number of overall miss cycles
system.l3cache.overall_miss_latency::.cpu.data    668659500                       # number of overall miss cycles
system.l3cache.overall_miss_latency::total    728432000                       # number of overall miss cycles
system.l3cache.WritebackDirty_accesses::.writebacks         9485                       # number of WritebackDirty accesses(hits+misses)
system.l3cache.WritebackDirty_accesses::total         9485                       # number of WritebackDirty accesses(hits+misses)
system.l3cache.ReadExReq_accesses::.cpu.data         8800                       # number of ReadExReq accesses(hits+misses)
system.l3cache.ReadExReq_accesses::total         8800                       # number of ReadExReq accesses(hits+misses)
system.l3cache.ReadSharedReq_accesses::.cpu.inst          821                       # number of ReadSharedReq accesses(hits+misses)
system.l3cache.ReadSharedReq_accesses::.cpu.data         4950                       # number of ReadSharedReq accesses(hits+misses)
system.l3cache.ReadSharedReq_accesses::total         5771                       # number of ReadSharedReq accesses(hits+misses)
system.l3cache.demand_accesses::.cpu.inst          821                       # number of demand (read+write) accesses
system.l3cache.demand_accesses::.cpu.data        13750                       # number of demand (read+write) accesses
system.l3cache.demand_accesses::total           14571                       # number of demand (read+write) accesses
system.l3cache.overall_accesses::.cpu.inst          821                       # number of overall (read+write) accesses
system.l3cache.overall_accesses::.cpu.data        13750                       # number of overall (read+write) accesses
system.l3cache.overall_accesses::total          14571                       # number of overall (read+write) accesses
system.l3cache.ReadExReq_miss_rate::.cpu.data     0.964432                       # miss rate for ReadExReq accesses
system.l3cache.ReadExReq_miss_rate::total     0.964432                       # miss rate for ReadExReq accesses
system.l3cache.ReadSharedReq_miss_rate::.cpu.inst     0.978076                       # miss rate for ReadSharedReq accesses
system.l3cache.ReadSharedReq_miss_rate::.cpu.data     0.059192                       # miss rate for ReadSharedReq accesses
system.l3cache.ReadSharedReq_miss_rate::total     0.189915                       # miss rate for ReadSharedReq accesses
system.l3cache.demand_miss_rate::.cpu.inst     0.978076                       # miss rate for demand accesses
system.l3cache.demand_miss_rate::.cpu.data     0.638545                       # miss rate for demand accesses
system.l3cache.demand_miss_rate::total       0.657676                       # miss rate for demand accesses
system.l3cache.overall_miss_rate::.cpu.inst     0.978076                       # miss rate for overall accesses
system.l3cache.overall_miss_rate::.cpu.data     0.638545                       # miss rate for overall accesses
system.l3cache.overall_miss_rate::total      0.657676                       # miss rate for overall accesses
system.l3cache.ReadExReq_avg_miss_latency::.cpu.data 75300.871922                       # average ReadExReq miss latency
system.l3cache.ReadExReq_avg_miss_latency::total 75300.871922                       # average ReadExReq miss latency
system.l3cache.ReadSharedReq_avg_miss_latency::.cpu.inst 74436.488169                       # average ReadSharedReq miss latency
system.l3cache.ReadSharedReq_avg_miss_latency::.cpu.data 100959.044369                       # average ReadSharedReq miss latency
system.l3cache.ReadSharedReq_avg_miss_latency::total 81526.916058                       # average ReadSharedReq miss latency
system.l3cache.demand_avg_miss_latency::.cpu.inst 74436.488169                       # average overall miss latency
system.l3cache.demand_avg_miss_latency::.cpu.data 76157.118451                       # average overall miss latency
system.l3cache.demand_avg_miss_latency::total 76012.939581                       # average overall miss latency
system.l3cache.overall_avg_miss_latency::.cpu.inst 74436.488169                       # average overall miss latency
system.l3cache.overall_avg_miss_latency::.cpu.data 76157.118451                       # average overall miss latency
system.l3cache.overall_avg_miss_latency::total 76012.939581                       # average overall miss latency
system.l3cache.blocked_cycles::no_mshrs             0                       # number of cycles access was blocked
system.l3cache.blocked_cycles::no_targets            0                       # number of cycles access was blocked
system.l3cache.blocked::no_mshrs                    0                       # number of cycles access was blocked
system.l3cache.blocked::no_targets                  0                       # number of cycles access was blocked
system.l3cache.avg_blocked_cycles::no_mshrs          nan                       # average number of cycles each access was blocked
system.l3cache.avg_blocked_cycles::no_targets          nan                       # average number of cycles each access was blocked
system.l3cache.ReadExReq_mshr_misses::.cpu.data         8487                       # number of ReadExReq MSHR misses
system.l3cache.ReadExReq_mshr_misses::total         8487                       # number of ReadExReq MSHR misses
system.l3cache.ReadSharedReq_mshr_misses::.cpu.inst          803                       # number of ReadSharedReq MSHR misses
system.l3cache.ReadSharedReq_mshr_misses::.cpu.data          293                       # number of ReadSharedReq MSHR misses
system.l3cache.ReadSharedReq_mshr_misses::total         1096                       # number of ReadSharedReq MSHR misses
system.l3cache.demand_mshr_misses::.cpu.inst          803                       # number of demand (read+write) MSHR misses
system.l3cache.demand_mshr_misses::.cpu.data         8780                       # number of demand (read+write) MSHR misses
system.l3cache.demand_mshr_misses::total         9583                       # number of demand (read+write) MSHR misses
system.l3cache.overall_mshr_misses::.cpu.inst          803                       # number of overall MSHR misses
system.l3cache.overall_mshr_misses::.cpu.data         8780                       # number of overall MSHR misses
system.l3cache.overall_mshr_misses::total         9583                       # number of overall MSHR misses
system.l3cache.ReadExReq_mshr_miss_latency::.cpu.data    622104500                       # number of ReadExReq MSHR miss cycles
system.l3cache.ReadExReq_mshr_miss_latency::total    622104500                       # number of ReadExReq MSHR miss cycles
system.l3cache.ReadSharedReq_mshr_miss_latency::.cpu.inst     58166500                       # number of ReadSharedReq MSHR miss cycles
system.l3cache.ReadSharedReq_mshr_miss_latency::.cpu.data     28995000                       # number of ReadSharedReq MSHR miss cycles
system.l3cache.ReadSharedReq_mshr_miss_latency::total     87161500                       # number of ReadSharedReq MSHR miss cycles
system.l3cache.demand_mshr_miss_latency::.cpu.inst     58166500                       # number of demand (read+write) MSHR miss cycles
system.l3cache.demand_mshr_miss_latency::.cpu.data    651099500                       # number of demand (read+write) MSHR miss cycles
system.l3cache.demand_mshr_miss_latency::total    709266000                       # number of demand (read+write) MSHR miss cycles
system.l3cache.overall_mshr_miss_latency::.cpu.inst     58166500                       # number of overall MSHR miss cycles
system.l3cache.overall_mshr_miss_latency::.cpu.data    651099500                       # number of overall MSHR miss cycles
system.l3cache.overall_mshr_miss_latency::total    709266000                       # number of overall MSHR miss cycles
system.l3cache.ReadExReq_mshr_miss_rate::.cpu.data     0.964432                       # mshr miss rate for ReadExReq accesses
system.l3cache.ReadExReq_mshr_miss_rate::total     0.964432                       # mshr miss rate for ReadExReq accesses
system.l3cache.ReadSharedReq_mshr_miss_rate::.cpu.inst     0.978076                       # mshr miss rate for ReadSharedReq accesses
system.l3cache.ReadSharedReq_mshr_miss_rate::.cpu.data     0.059192                       # mshr miss rate for ReadSharedReq accesses
system.l3cache.ReadSharedReq_mshr_miss_rate::total     0.189915                       # mshr miss rate for ReadSharedReq accesses
system.l3cache.demand_mshr_miss_rate::.cpu.inst     0.978076                       # mshr miss rate for demand accesses
system.l3cache.demand_mshr_miss_rate::.cpu.data     0.638545                       # mshr miss rate for demand accesses
system.l3cache.demand_mshr_miss_rate::total     0.657676                       # mshr miss rate for demand accesses
system.l3cache.overall_mshr_miss_rate::.cpu.inst     0.978076                       # mshr miss rate for overall accesses
system.l3cache.overall_mshr_miss_rate::.cpu.data     0.638545                       # mshr miss rate for overall accesses
system.l3cache.overall_mshr_miss_rate::total     0.657676                       # mshr miss rate for overall accesses
system.l3cache.ReadExReq_avg_mshr_miss_latency::.cpu.data 73300.871922                       # average ReadExReq mshr miss latency
system.l3cache.ReadExReq_avg_mshr_miss_latency::total 73300.871922                       # average ReadExReq mshr miss latency
system.l3cache.ReadSharedReq_avg_mshr_miss_latency::.cpu.inst 72436.488169                       # average ReadSharedReq mshr miss latency
system.l3cache.ReadSharedReq_avg_mshr_miss_latency::.cpu.data 98959.044369                       # average ReadSharedReq mshr miss latency
system.l3cache.ReadSharedReq_avg_mshr_miss_latency::total 79526.916058                       # average ReadSharedReq mshr miss latency
system.l3cache.demand_avg_mshr_miss_latency::.cpu.inst 72436.488169                       # average overall mshr miss latency
system.l3cache.demand_avg_mshr_miss_latency::.cpu.data 74157.118451                       # average overall mshr miss latency
system.l3cache.demand_avg_mshr_miss_latency::total 74012.939581                       # average overall mshr miss latency
system.l3cache.overall_avg_mshr_miss_latency::.cpu.inst 72436.488169                       # average overall mshr miss latency
system.l3cache.overall_avg_mshr_miss_latency::.cpu.data 74157.118451                       # average overall mshr miss latency
system.l3cache.overall_avg_mshr_miss_latency::total 74012.939581                       # average overall mshr miss latency
system.l3cache.replacements                         0                       # number of replacements
system.membus.snoop_filter.tot_requests          9583                       # Total number of requests made to the snoop filter.
system.membus.snoop_filter.hit_single_requests            0                       # Number of requests hitting in the snoop filter with a single holder of the requested data.
system.membus.snoop_filter.hit_multi_requests            0                       # Number of requests hitting in the snoop filter with multiple (>1) holders of the requested data.
system.membus.snoop_filter.tot_snoops               0                       # Total number of snoops made to the snoop filter.
system.membus.snoop_filter.hit_single_snoops            0                       # Number of snoops hitting in the snoop filter with a single holder of the requested data.
system.membus.snoop_filter.hit_multi_snoops            0                       # Number of snoops hitting in the snoop filter with multiple (>1) holders of the requested data.
system.membus.pwrStateResidencyTicks::UNDEFINED  33998214500                       # Cumulative time (in ticks) in various power states
system.membus.trans_dist::ReadResp               1096                       # Transaction distribution
system.membus.trans_dist::ReadExReq              8487                       # Transaction distribution
system.membus.trans_dist::ReadExResp             8487                       # Transaction distribution
system.membus.trans_dist::ReadSharedReq          1096                       # Transaction distribution
system.membus.pkt_count_system.l3cache.mem_side::system.mem_ctrl.port        19166                       # Packet count per connected master and slave (bytes)
system.membus.pkt_count_system.l3cache.mem_side::total        19166                       # Packet count per connected master and slave (bytes)
system.membus.pkt_count::total                  19166                       # Packet count per connected master and slave (bytes)
system.membus.pkt_size_system.l3cache.mem_side::system.mem_ctrl.port       613312                       # Cumulative packet size per connected master and slave (bytes)
system.membus.pkt_size_system.l3cache.mem_side::total       613312                       # Cumulative packet size per connected master and slave (bytes)
system.membus.pkt_size::total                  613312                       # Cumulative packet size per connected master and slave (bytes)
system.membus.snoops                                0                       # Total snoops (count)
system.membus.snoopTraffic                          0                       # Total snoop traffic (bytes)
system.membus.snoop_fanout::samples              9583                       # Request fanout histogram
system.membus.snoop_fanout::mean                    0                       # Request fanout histogram
system.membus.snoop_fanout::stdev                   0                       # Request fanout histogram
system.membus.snoop_fanout::underflows              0      0.00%      0.00% # Request fanout histogram
system.membus.snoop_fanout::0                    9583    100.00%    100.00% # Request fanout histogram
system.membus.snoop_fanout::1                       0      0.00%    100.00% # Request fanout histogram
system.membus.snoop_fanout::overflows               0      0.00%    100.00% # Request fanout histogram
system.membus.snoop_fanout::min_value               0                       # Request fanout histogram
system.membus.snoop_fanout::max_value               0                       # Request fanout histogram
system.membus.snoop_fanout::total                9583                       # Request fanout histogram
system.membus.reqLayer0.occupancy             4791500                       # Layer occupancy (ticks)
system.membus.reqLayer0.utilization               0.0                       # Layer utilization (%)
system.membus.respLayer0.occupancy           25222250                       # Layer occupancy (ticks)
system.membus.respLayer0.utilization              0.1                       # Layer utilization (%)

---------- End Simulation Statistics   ----------