
---------- Begin Simulation Statistics ----------
sim_seconds                                  0.036272                       # Number of seconds simulated
sim_ticks                                 36271550500                       # Number of ticks simulated
final_tick                                36271550500                       # Number of ticks from beginning of simulation (restored from checkpoints and never reset)
sim_freq                                 1000000000000                       # Frequency of simulated ticks
host_inst_rate                                 285952                       # Simulator instruction rate (inst/s)
host_op_rate                                   503248                       # Simulator op (including micro ops) rate (op/s)
host_tick_rate                              165881987                       # Simulator tick rate (ticks/s)
host_mem_usage                                 660820                       # Number of bytes of host memory used
host_seconds                                   218.66                       # Real time elapsed on the host
sim_insts                                    62525833                       # Number of instructions simulated
sim_ops                                     110039685                       # Number of ops (including micro ops) simulated
system.clk_domain.voltage_domain.voltage            1                       # Voltage in Volts
system.clk_domain.clock                           500                       # Clock period in ticks
system.mem_ctrl.pwrStateResidencyTicks::UNDEFINED  36271550500                       # Cumulative time (in ticks) in various power states
system.mem_ctrl.bytes_read::.cpu.inst           51584                       # Number of bytes read from this memory
system.mem_ctrl.bytes_read::.cpu.data          561920                       # Number of bytes read from this memory
system.mem_ctrl.bytes_read::total              613504                       # Number of bytes read from this memory
system.mem_ctrl.bytes_inst_read::.cpu.inst        51584                       # Number of instructions bytes read from this memory
system.mem_ctrl.bytes_inst_read::total          51584                       # Number of instructions bytes read from this memory
system.mem_ctrl.num_reads::.cpu.inst              806                       # Number of read requests responded to by this memory
system.mem_ctrl.num_reads::.cpu.data             8780                       # Number of read requests responded to by this memory
system.mem_ctrl.num_reads::total                 9586                       # Number of read requests responded to by this memory
system.mem_ctrl.bw_read::.cpu.inst            1422161                       # Total read bandwidth from this memory (bytes/s)
system.mem_ctrl.bw_read::.cpu.data           15492031                       # Total read bandwidth from this memory (bytes/s)
system.mem_ctrl.bw_read::total               16914193                       # Total read bandwidth from this memory (bytes/s)
system.mem_ctrl.bw_inst_read::.cpu.inst       1422161                       # Instruction read bandwidth from this memory (bytes/s)
system.mem_ctrl.bw_inst_read::total           1422161                       # Instruction read bandwidth from this memory (bytes/s)
system.mem_ctrl.bw_total::.cpu.inst           1422161                       # Total bandwidth to/from this memory (bytes/s)
system.mem_ctrl.bw_total::.cpu.data          15492031                       # Total bandwidth to/from this memory (bytes/s)
system.mem_ctrl.bw_total::total              16914193                       # Total bandwidth to/from this memory (bytes/s)
system.mem_ctrl.avgPriority_.cpu.inst::samples       806.00                       # Average QoS priority value for accepted requests
system.mem_ctrl.avgPriority_.cpu.data::samples      8780.00                       # Average QoS priority value for accepted requests
system.mem_ctrl.priorityMinLatency       0.000000018750                       # per QoS priority minimum request to response latency (s)
system.mem_ctrl.priorityMaxLatency       0.000001101750                       # per QoS priority maximum request to response latency (s)
system.mem_ctrl.numReadWriteTurnArounds             0                       # Number of turnarounds from READ to WRITE
system.mem_ctrl.numWriteReadTurnArounds             0                       # Number of turnarounds from WRITE to READ
system.mem_ctrl.numStayReadState                23917                       # Number of times bus staying in READ state
system.mem_ctrl.numStayWriteState                   0                       # Number of times bus staying in WRITE state
system.mem_ctrl.readReqs                         9586                       # Number of read requests accepted
system.mem_ctrl.writeReqs                           0                       # Number of write requests accepted
system.mem_ctrl.readBursts                       9586                       # Number of DRAM read bursts, including those serviced by the write queue
system.mem_ctrl.writeBursts                         0                       # Number of DRAM write bursts, including those merged in the write queue
system.mem_ctrl.bytesReadDRAM                  613504                       # Total number of bytes read from DRAM
system.mem_ctrl.bytesReadWrQ                        0                       # Total number of bytes read from write queue
system.mem_ctrl.bytesWritten                        0                       # Total number of bytes written to DRAM
system.mem_ctrl.bytesReadSys                   613504                       # Total read bytes from the system interface side
system.mem_ctrl.bytesWrittenSys                     0                       # Total written bytes from the system interface side
system.mem_ctrl.servicedByWrQ                       0                       # Number of DRAM read bursts serviced by the write queue
system.mem_ctrl.mergedWrBursts                      0                       # Number of DRAM write bursts merged with an existing one
system.mem_ctrl.neitherReadNorWriteReqs             0                       # Number of requests that are neither read nor write
system.mem_ctrl.perBankRdBursts::0                789                       # Per bank write bursts
system.mem_ctrl.perBankRdBursts::1                622                       # Per bank write bursts
system.mem_ctrl.perBankRdBursts::2                553                       # Per bank write bursts
system.mem_ctrl.perBankRdBursts::3                528                       # Per bank write bursts
system.mem_ctrl.perBankRdBursts::4                542                       # Per bank write bursts
system.mem_ctrl.perBankRdBursts::5                526                       # Per bank write bursts
system.mem_ctrl.perBankRdBursts::6                587                       # Per bank write bursts
system.mem_ctrl.perBankRdBursts::7                619                       # Per bank write bursts
system.mem_ctrl.perBankRdBursts::8                543                       # Per bank write bursts
system.mem_ctrl.perBankRdBursts::9                567                       # Per bank write bursts
system.mem_ctrl.perBankRdBursts::10               659                       # Per bank write bursts
system.mem_ctrl.perBankRdBursts::11               616                       # Per bank write bursts
system.mem_ctrl.perBankRdBursts::12               573                       # Per bank write bursts
system.mem_ctrl.perBankRdBursts::13               581                       # Per bank write bursts
system.mem_ctrl.perBankRdBursts::14               627                       # Per bank write bursts
system.mem_ctrl.perBankRdBursts::15               654                       # Per bank write bursts
system.mem_ctrl.perBankWrBursts::0                  0                       # Per bank write bursts
system.mem_ctrl.perBankWrBursts::1                  0                       # Per bank write bursts
system.mem_ctrl.perBankWrBursts::2                  0                       # Per bank write bursts
system.mem_ctrl.perBankWrBursts::3                  0                       # Per bank write bursts
system.mem_ctrl.perBankWrBursts::4                  0                       # Per bank write bursts
system.mem_ctrl.perBankWrBursts::5                  0                       # Per bank write bursts
system.mem_ctrl.perBankWrBursts::6                  0                       # Per bank write bursts
system.mem_ctrl.perBankWrBursts::7                  0                       # Per bank write bursts
system.mem_ctrl.perBankWrBursts::8                  0                       # Per bank write bursts
system.mem_ctrl.perBankWrBursts::9                  0                       # Per bank write bursts
system.mem_ctrl.perBankWrBursts::10                 0                       # Per bank write bursts
system.mem_ctrl.perBankWrBursts::11                 0                       # Per bank write bursts
system.mem_ctrl.perBankWrBursts::12                 0                       # Per bank write bursts
system.mem_ctrl.perBankWrBursts::13                 0                       # Per bank write bursts
system.mem_ctrl.perBankWrBursts::14                 0                       # Per bank write bursts
system.mem_ctrl.perBankWrBursts::15                 0                       # Per bank write bursts
system.mem_ctrl.numRdRetry                          0                       # Number of times read queue was full causing retry
system.mem_ctrl.numWrRetry                          0                       # Number of times write queue was full causing retry
system.mem_ctrl.totGap                    36271466500                       # Total gap between requests
system.mem_ctrl.readPktSize::0                      0                       # Read request sizes (log2)
system.mem_ctrl.readPktSize::1                      0                       # Read request sizes (log2)
system.mem_ctrl.readPktSize::2                      0                       # Read request sizes (log2)
system.mem_ctrl.readPktSize::3                      0                       # Read request sizes (log2)
system.mem_ctrl.readPktSize::4                      0                       # Read request sizes (log2)
system.mem_ctrl.readPktSize::5                      0                       # Read request sizes (log2)
system.mem_ctrl.readPktSize::6                   9586                       # Read request sizes (log2)
system.mem_ctrl.writePktSize::0                     0                       # Write request sizes (log2)
system.mem_ctrl.writePktSize::1                     0                       # Write request sizes (log2)
system.mem_ctrl.writePktSize::2                     0                       # Write request sizes (log2)
system.mem_ctrl.writePktSize::3                     0                       # Write request sizes (log2)
system.mem_ctrl.writePktSize::4                     0                       # Write request sizes (log2)
system.mem_ctrl.writePktSize::5                     0                       # Write request sizes (log2)
system.mem_ctrl.writePktSize::6                     0                       # Write request sizes (log2)
system.mem_ctrl.rdQLenPdf::0                     9168                       # What read queue length does an incoming req see
system.mem_ctrl.rdQLenPdf::1                      304                       # What read queue length does an incoming req see
system.mem_ctrl.rdQLenPdf::2                       81                       # What read queue length does an incoming req see
system.mem_ctrl.rdQLenPdf::3                       22                       # What read queue length does an incoming req see
system.mem_ctrl.rdQLenPdf::4                        7                       # What read queue length does an incoming req see
system.mem_ctrl.rdQLenPdf::5                        4                       # What read queue length does an incoming req see
system.mem_ctrl.rdQLenPdf::6                        0                       # What read queue length does an incoming req see
system.mem_ctrl.rdQLenPdf::7                        0                       # What read queue length does an incoming req see
system.mem_ctrl.rdQLenPdf::8                        0                       # What read queue length does an incoming req see
system.mem_ctrl.rdQLenPdf::9                        0                       # What read queue length does an incoming req see
system.mem_ctrl.rdQLenPdf::10                       0                       # What read queue length does an incoming req see
system.mem_ctrl.rdQLenPdf::11                       0                       # What read queue length does an incoming req see
system.mem_ctrl.rdQLenPdf::12                       0                       # What read queue length does an incoming req see
system.mem_ctrl.rdQLenPdf::13                       0                       # What read queue length does an incoming req see
system.mem_ctrl.rdQLenPdf::14                       0                       # What read queue length does an incoming req see
system.mem_ctrl.rdQLenPdf::15                       0                       # What read queue length does an incoming req see
system.mem_ctrl.rdQLenPdf::16                       0                       # What read queue length does an incoming req see
system.mem_ctrl.rdQLenPdf::17                       0                       # What read queue length does an incoming req see
system.mem_ctrl.rdQLenPdf::18                       0                       # What read queue length does an incoming req see
system.mem_ctrl.rdQLenPdf::19                       0                       # What read queue length does an incoming req see
system.mem_ctrl.rdQLenPdf::20                       0                       # What read queue length does an incoming req see
system.mem_ctrl.rdQLenPdf::21                       0                       # What read queue length does an incoming req see
system.mem_ctrl.rdQLenPdf::22                       0                       # What read queue length does an incoming req see
system.mem_ctrl.rdQLenPdf::23                       0                       # What read queue length does an incoming req see
system.mem_ctrl.rdQLenPdf::24                       0                       # What read queue length does an incoming req see
system.mem_ctrl.rdQLenPdf::25                       0                       # What read queue length does an incoming req see
system.mem_ctrl.rdQLenPdf::26                       0                       # What read queue length does an incoming req see
system.mem_ctrl.rdQLenPdf::27                       0                       # What read queue length does an incoming req see
system.mem_ctrl.rdQLenPdf::28                       0                       # What read queue length does an incoming req see
system.mem_ctrl.rdQLenPdf::29                       0                       # What read queue length does an incoming req see
system.mem_ctrl.rdQLenPdf::30                       0                       # What read queue length does an incoming req see
system.mem_ctrl.rdQLenPdf::31                       0                       # What read queue length does an incoming req see
system.mem_ctrl.wrQLenPdf::0                        0                       # What write queue length does an incoming req see
system.mem_ctrl.wrQLenPdf::1                        0                       # What write queue length does an incoming req see
system.mem_ctrl.wrQLenPdf::2                        0                       # What write queue length does an incoming req see
system.mem_ctrl.wrQLenPdf::3                        0                       # What write queue length does an incoming req see
system.mem_ctrl.wrQLenPdf::4                        0                       # What write queue length does an incoming req see
system.mem_ctrl.wrQLenPdf::5                        0                       # What write queue length does an incoming req see
system.mem_ctrl.wrQLenPdf::6                        0                       # What write queue length does an incoming req see
system.mem_ctrl.wrQLenPdf::7                        0                       # What write queue length does an incoming req see
system.mem_ctrl.wrQLenPdf::8                        0                       # What write queue length does an incoming req see
system.mem_ctrl.wrQLenPdf::9                        0                       # What write queue length does an incoming req see
system.mem_ctrl.wrQLenPdf::10                       0                       # What write queue length does an incoming req see
system.mem_ctrl.wrQLenPdf::11                       0                       # What write queue length does an incoming req see
system.mem_ctrl.wrQLenPdf::12                       0                       # What write queue length does an incoming req see
system.mem_ctrl.wrQLenPdf::13                       0                       # What write queue length does an incoming req see
system.mem_ctrl.wrQLenPdf::14                       0                       # What write queue length does an incoming req see
system.mem_ctrl.wrQLenPdf::15                       0                       # What write queue length does an incoming req see
system.mem_ctrl.wrQLenPdf::16                       0                       # What write queue length does an incoming req see
system.mem_ctrl.wrQLenPdf::17                       0                       # What write queue length does an incoming req see
system.mem_ctrl.wrQLenPdf::18                       0                       # What write queue length does an incoming req see
system.mem_ctrl.wrQLenPdf::19                       0                       # What write queue length does an incoming req see
system.mem_ctrl.wrQLenPdf::20                       0                       # What write queue length does an incoming req see
system.mem_ctrl.wrQLenPdf::21                       0                       # What write queue length does an incoming req see
system.mem_ctrl.wrQLenPdf::22                       0                       # What write queue length does an incoming req see
system.mem_ctrl.wrQLenPdf::23                       0                       # What write queue length does an incoming req see
system.mem_ctrl.wrQLenPdf::24                       0                       # What write queue length does an incoming req see
system.mem_ctrl.wrQLenPdf::25                       0                       # What write queue length does an incoming req see
system.mem_ctrl.wrQLenPdf::26                       0                       # What write queue length does an incoming req see
system.mem_ctrl.wrQLenPdf::27                       0                       # What write queue length does an incoming req see
system.mem_ctrl.wrQLenPdf::28                       0                       # What write queue length does an incoming req see
system.mem_ctrl.wrQLenPdf::29                       0                       # What write queue length does an incoming req see
system.mem_ctrl.wrQLenPdf::30                       0                       # What write queue length does an incoming req see
system.mem_ctrl.wrQLenPdf::31                       0                       # What write queue length does an incoming req see
system.mem_ctrl.wrQLenPdf::32                       0                       # What write queue length does an incoming req see
system.mem_ctrl.wrQLenPdf::33                       0                       # What write queue length does an incoming req see
system.mem_ctrl.wrQLenPdf::34                       0                       # What write queue length does an incoming req see
system.mem_ctrl.wrQLenPdf::35                       0                       # What write queue length does an incoming req see
system.mem_ctrl.wrQLenPdf::36                       0                       # What write queue length does an incoming req see
system.mem_ctrl.wrQLenPdf::37                       0                       # What write queue length does an incoming req see
system.mem_ctrl.wrQLenPdf::38                       0                       # What write queue length does an incoming req see
system.mem_ctrl.wrQLenPdf::39                       0                       # What write queue length does an incoming req see
system.mem_ctrl.wrQLenPdf::40                       0                       # What write queue length does an incoming req see
system.mem_ctrl.wrQLenPdf::41                       0                       # What write queue length does an incoming req see
system.mem_ctrl.wrQLenPdf::42                       0                       # What write queue length does an incoming req see
system.mem_ctrl.wrQLenPdf::43                       0                       # What write queue length does an incoming req see
system.mem_ctrl.wrQLenPdf::44                       0                       # What write queue length does an incoming req see
system.mem_ctrl.wrQLenPdf::45                       0                       # What write queue length does an incoming req see
system.mem_ctrl.wrQLenPdf::46                       0                       # What write queue length does an incoming req see
system.mem_ctrl.wrQLenPdf::47                       0                       # What write queue length does an incoming req see
system.mem_ctrl.wrQLenPdf::48                       0                       # What write queue length does an incoming req see
system.mem_ctrl.wrQLenPdf::49                       0                       # What write queue length does an incoming req see
system.mem_ctrl.wrQLenPdf::50                       0                       # What write queue length does an incoming req see
system.mem_ctrl.wrQLenPdf::51                       0                       # What write queue length does an incoming req see
system.mem_ctrl.wrQLenPdf::52                       0                       # What write queue length does an incoming req see
system.mem_ctrl.wrQLenPdf::53                       0                       # What write queue length does an incoming req see
system.mem_ctrl.wrQLenPdf::54                       0                       # What write queue length does an incoming req see
system.mem_ctrl.wrQLenPdf::55                       0                       # What write queue length does an incoming req see
system.mem_ctrl.wrQLenPdf::56                       0                       # What write queue length does an incoming req see
system.mem_ctrl.wrQLenPdf::57                       0                       # What write queue length does an incoming req see
system.mem_ctrl.wrQLenPdf::58                       0                       # What write queue length does an incoming req see
system.mem_ctrl.wrQLenPdf::59                       0                       # What write queue length does an incoming req see
system.mem_ctrl.wrQLenPdf::60                       0                       # What write queue length does an incoming req see
system.mem_ctrl.wrQLenPdf::61                       0                       # What write queue length does an incoming req see
system.mem_ctrl.wrQLenPdf::62                       0                       # What write queue length does an incoming req see
system.mem_ctrl.wrQLenPdf::63                       0                       # What write queue length does an incoming req see
system.mem_ctrl.bytesPerActivate::samples         5092                       # Bytes accessed per row activation
system.mem_ctrl.bytesPerActivate::mean     120.106834                       # Bytes accessed per row activation
system.mem_ctrl.bytesPerActivate::gmean    106.413646                       # Bytes accessed per row activation
system.mem_ctrl.bytesPerActivate::stdev     89.573903                       # Bytes accessed per row activation
system.mem_ctrl.bytesPerActivate::0-127          1697     33.33%     33.33% # Bytes accessed per row activation
system.mem_ctrl.bytesPerActivate::128-255         3226     63.35%     96.68% # Bytes accessed per row activation
system.mem_ctrl.bytesPerActivate::256-383           35      0.69%     97.37% # Bytes accessed per row activation
system.mem_ctrl.bytesPerActivate::384-511           39      0.77%     98.13% # Bytes accessed per row activation
system.mem_ctrl.bytesPerActivate::512-639           59      1.16%     99.29% # Bytes accessed per row activation
system.mem_ctrl.bytesPerActivate::640-767           11      0.22%     99.51% # Bytes accessed per row activation
system.mem_ctrl.bytesPerActivate::768-895            4      0.08%     99.59% # Bytes accessed per row activation
system.mem_ctrl.bytesPerActivate::896-1023            5      0.10%     99.69% # Bytes accessed per row activation
system.mem_ctrl.bytesPerActivate::1024-1151           16      0.31%    100.00% # Bytes accessed per row activation
system.mem_ctrl.bytesPerActivate::total          5092                       # Bytes accessed per row activation
system.mem_ctrl.masterReadBytes::.cpu.inst        51584                       # Per-master bytes read from memory
system.mem_ctrl.masterReadBytes::.cpu.data       561920                       # Per-master bytes read from memory
system.mem_ctrl.masterReadRate::.cpu.inst 1422161.426487682154                       # Per-master bytes read from memory rate (Bytes/sec)
system.mem_ctrl.masterReadRate::.cpu.data 15492031.420051923022                       # Per-master bytes read from memory rate (Bytes/sec)
system.mem_ctrl.masterReadAccesses::.cpu.inst          806                       # Per-master read serviced memory accesses
system.mem_ctrl.masterReadAccesses::.cpu.data         8780                       # Per-master read serviced memory accesses
system.mem_ctrl.masterReadTotalLat::.cpu.inst     31269250                       # Per-master read total memory access latency
system.mem_ctrl.masterReadTotalLat::.cpu.data    358708000                       # Per-master read total memory access latency
system.mem_ctrl.masterReadAvgLat::.cpu.inst     38795.60                       # Per-master read average memory access latency
system.mem_ctrl.masterReadAvgLat::.cpu.data     40855.13                       # Per-master read average memory access latency
system.mem_ctrl.totQLat                     210239750                       # Total ticks spent queuing
system.mem_ctrl.totMemAccLat                389977250                       # Total ticks spent from burst creation until serviced by the DRAM
system.mem_ctrl.totBusLat                    47930000                       # Total ticks spent in databus transfers
system.mem_ctrl.avgQLat                      21931.96                       # Average queueing delay per DRAM burst
system.mem_ctrl.avgBusLat                     5000.00                       # Average bus latency per DRAM burst
system.mem_ctrl.avgMemAccLat                 40681.96                       # Average memory access latency per DRAM burst
system.mem_ctrl.avgRdBW                         16.91                       # Average DRAM read bandwidth in MiByte/s
system.mem_ctrl.avgWrBW                          0.00                       # Average achieved write bandwidth in MiByte/s
system.mem_ctrl.avgRdBWSys                      16.91                       # Average system read bandwidth in MiByte/s
system.mem_ctrl.avgWrBWSys                       0.00                       # Average system write bandwidth in MiByte/s
system.mem_ctrl.peakBW                       12800.00                       # Theoretical peak bandwidth in MiByte/s
system.mem_ctrl.busUtil                          0.13                       # Data bus utilization in percentage
system.mem_ctrl.busUtilRead                      0.13                       # Data bus utilization in percentage for reads
system.mem_ctrl.busUtilWrite                     0.00                       # Data bus utilization in percentage for writes
system.mem_ctrl.avgRdQLen                        1.00                       # Average read queue length when enqueuing
system.mem_ctrl.avgWrQLen                        0.00                       # Average write queue length when enqueuing
system.mem_ctrl.readRowHits                      4484                       # Number of row buffer hits during reads
system.mem_ctrl.writeRowHits                        0                       # Number of row buffer hits during writes
system.mem_ctrl.readRowHitRate                  46.78                       # Row buffer hit rate for reads
system.mem_ctrl.writeRowHitRate                   nan                       # Row buffer hit rate for writes
system.mem_ctrl.avgGap                     3783795.80                       # Average gap between requests
system.mem_ctrl.pageHitRate                     46.78                       # Row buffer hit rate, read and write combined
system.mem_ctrl_0.actEnergy                  18164160                       # Energy for activate commands per rank (pJ)
system.mem_ctrl_0.preEnergy                   9631710                       # Energy for precharge commands per rank (pJ)
system.mem_ctrl_0.readEnergy                 34029240                       # Energy for read commands per rank (pJ)
system.mem_ctrl_0.writeEnergy                       0                       # Energy for write commands per rank (pJ)
system.mem_ctrl_0.refreshEnergy          1457926080.000000                       # Energy for refresh commands per rank (pJ)
system.mem_ctrl_0.actBackEnergy             335989920                       # Energy for active background per rank (pJ)
system.mem_ctrl_0.preBackEnergy              33221760                       # Energy for precharge background per rank (pJ)
system.mem_ctrl_0.actPowerDownEnergy       5764685880                       # Energy for active power-down per rank (pJ)
system.mem_ctrl_0.prePowerDownEnergy       1925967360                       # Energy for precharge power-down per rank (pJ)
system.mem_ctrl_0.selfRefreshEnergy        4284707580                       # Energy for self refresh per rank (pJ)
system.mem_ctrl_0.totalEnergy             13864364880                       # Total energy per rank (pJ)
system.mem_ctrl_0.averagePower             382.237999                       # Core power per rank (mW)
system.mem_ctrl_0.totalIdleTime           35448521250                       # Total Idle time Per DRAM Rank
system.mem_ctrl_0.memoryStateTime::IDLE      21516500                       # Time in different power states
system.mem_ctrl_0.memoryStateTime::REF      616720000                       # Time in different power states
system.mem_ctrl_0.memoryStateTime::SREF   17790727000                       # Time in different power states
system.mem_ctrl_0.memoryStateTime::PRE_PDN   5015663750                       # Time in different power states
system.mem_ctrl_0.memoryStateTime::ACT      184752000                       # Time in different power states
system.mem_ctrl_0.memoryStateTime::ACT_PDN  12642171250                       # Time in different power states
system.mem_ctrl_1.actEnergy                  18264120                       # Energy for activate commands per rank (pJ)
system.mem_ctrl_1.preEnergy                   9692430                       # Energy for precharge commands per rank (pJ)
system.mem_ctrl_1.readEnergy                 34414800                       # Energy for read commands per rank (pJ)
system.mem_ctrl_1.writeEnergy                       0                       # Energy for write commands per rank (pJ)
system.mem_ctrl_1.refreshEnergy          1482511680.000000                       # Energy for refresh commands per rank (pJ)
system.mem_ctrl_1.actBackEnergy             340099620                       # Energy for active background per rank (pJ)
system.mem_ctrl_1.preBackEnergy              34944960                       # Energy for precharge background per rank (pJ)
system.mem_ctrl_1.actPowerDownEnergy       5743041270                       # Energy for active power-down per rank (pJ)
system.mem_ctrl_1.prePowerDownEnergy       2059787040                       # Energy for precharge power-down per rank (pJ)
system.mem_ctrl_1.selfRefreshEnergy        4216401300                       # Energy for self refresh per rank (pJ)
system.mem_ctrl_1.totalEnergy             13939242870                       # Total energy per rank (pJ)
system.mem_ctrl_1.averagePower             384.302371                       # Core power per rank (mW)
system.mem_ctrl_1.totalIdleTime           35434205000                       # Total Idle time Per DRAM Rank
system.mem_ctrl_1.memoryStateTime::IDLE      25378000                       # Time in different power states
system.mem_ctrl_1.memoryStateTime::REF      627120000                       # Time in different power states
system.mem_ctrl_1.memoryStateTime::SREF   17476107500                       # Time in different power states
system.mem_ctrl_1.memoryStateTime::PRE_PDN   5363929750                       # Time in different power states
system.mem_ctrl_1.memoryStateTime::ACT      184642750                       # Time in different power states
system.mem_ctrl_1.memoryStateTime::ACT_PDN  12594372500                       # Time in different power states
system.pwrStateResidencyTicks::UNDEFINED  36271550500                       # Cumulative time (in ticks) in various power states
system.cpu.branchPred.lookups                13192734                       # Number of BP lookups
system.cpu.branchPred.condPredicted          13192734                       # Number of conditional branches predicted
system.cpu.branchPred.condIncorrect            264511                       # Number of conditional branches incorrect
system.cpu.branchPred.BTBLookups             11972654                       # Number of BTB lookups
system.cpu.branchPred.BTBHits                       0                       # Number of BTB hits
system.cpu.branchPred.BTBCorrect                    0                       # Number of correct BTB predictions (this stat may not work properly.
system.cpu.branchPred.BTBHitPct              0.000000                       # BTB Hit Percentage
system.cpu.branchPred.usedRAS                  417819                       # Number of times the RAS was used to get a target.
system.cpu.branchPred.RASInCorrect                272                       # Number of incorrect RAS predictions.
system.cpu.branchPred.indirectLookups        11972654                       # Number of indirect predictor lookups.
system.cpu.branchPred.indirectHits            5788272                       # Number of indirect target hits.
system.cpu.branchPred.indirectMisses          6184382                       # Number of indirect misses.
system.cpu.branchPredindirectMispredicted       263539                       # Number of mispredicted indirect branches.
system.cpu.dtb.walker.pwrStateResidencyTicks::UNDEFINED  36271550500                       # Cumulative time (in ticks) in various power states
system.cpu.dtb.rdAccesses                    20095370                       # TLB accesses on read requests
system.cpu.dtb.wrAccesses                     8911655                       # TLB accesses on write requests
system.cpu.dtb.rdMisses                           465                       # TLB misses on read requests
system.cpu.dtb.wrMisses                           324                       # TLB misses on write requests
system.cpu.apic_clk_domain.clock                 8000                       # Clock period in ticks
system.cpu.interrupts.pwrStateResidencyTicks::UNDEFINED  36271550500                       # Cumulative time (in ticks) in various power states
system.cpu.itb.walker.pwrStateResidencyTicks::UNDEFINED  36271550500                       # Cumulative time (in ticks) in various power states
system.cpu.itb.rdAccesses                           0                       # TLB accesses on read requests
system.cpu.itb.wrAccesses                     9593396                       # TLB accesses on write requests
system.cpu.itb.rdMisses                             0                       # TLB misses on read requests
system.cpu.itb.wrMisses                           206                       # TLB misses on write requests
system.cpu.workload.numSyscalls                    36                       # Number of system calls
system.cpu.pwrStateResidencyTicks::ON     36271550500                       # Cumulative time (in ticks) in various power states
system.cpu.numCycles                         72543102                       # number of cpu cycles simulated
system.cpu.numWorkItemsStarted                      0                       # number of work items this cpu started
system.cpu.numWorkItemsCompleted                    0                       # number of work items this cpu completed
system.cpu.fetch.icacheStallCycles             311555                       # Number of cycles fetch is stalled on an Icache miss
system.cpu.fetch.Insts                       74828529                       # Number of instructions fetch has processed
system.cpu.fetch.Branches                    13192734                       # Number of branches that fetch encountered
system.cpu.fetch.predictedBranches            6206091                       # Number of branches that fetch has predicted taken
system.cpu.fetch.Cycles                      71929705                       # Number of cycles fetch has run and was not squashing or blocked
system.cpu.fetch.SquashCycles                  530252                       # Number of cycles fetch has spent squashing
system.cpu.fetch.MiscStallCycles                  106                       # Number of cycles fetch has spent waiting on interrupts, or bad addresses, or out of MSHRs
system.cpu.fetch.PendingTrapStallCycles          1547                       # Number of stall cycles due to pending traps
system.cpu.fetch.PendingQuiesceStallCycles           13                       # Number of stall cycles due to pending quiesce instructions
system.cpu.fetch.IcacheWaitRetryStallCycles            2                       # Number of stall cycles due to full MSHR
system.cpu.fetch.CacheLines                   9593249                       # Number of cache lines fetched
system.cpu.fetch.IcacheSquashes                   577                       # Number of outstanding Icache misses that were squashed
system.cpu.fetch.rateDist::samples           72508054                       # Number of instructions fetched each cycle (Total)
system.cpu.fetch.rateDist::mean              1.834025                       # Number of instructions fetched each cycle (Total)
system.cpu.fetch.rateDist::stdev             1.869921                       # Number of instructions fetched each cycle (Total)
system.cpu.fetch.rateDist::underflows               0      0.00%      0.00% # Number of instructions fetched each cycle (Total)
system.cpu.fetch.rateDist::0                 34286275     47.29%     47.29% # Number of instructions fetched each cycle (Total)
system.cpu.fetch.rateDist::1                  3014252      4.16%     51.44% # Number of instructions fetched each cycle (Total)
system.cpu.fetch.rateDist::2                  3564157      4.92%     56.36% # Number of instructions fetched each cycle (Total)
system.cpu.fetch.rateDist::3                  3734485      5.15%     61.51% # Number of instructions fetched each cycle (Total)
system.cpu.fetch.rateDist::4                 27908885     38.49%    100.00% # Number of instructions fetched each cycle (Total)
system.cpu.fetch.rateDist::overflows                0      0.00%    100.00% # Number of instructions fetched each cycle (Total)
system.cpu.fetch.rateDist::min_value                0                       # Number of instructions fetched each cycle (Total)
system.cpu.fetch.rateDist::max_value                4                       # Number of instructions fetched each cycle (Total)
system.cpu.fetch.rateDist::total             72508054                       # Number of instructions fetched each cycle (Total)
system.cpu.fetch.branchRate                  0.181861                       # Number of branch fetches per cycle
system.cpu.fetch.rate                        1.031504                       # Number of inst fetches per cycle
system.cpu.decode.IdleCycles                  7659115                       # Number of cycles decode is idle
system.cpu.decode.BlockedCycles              32699818                       # Number of cycles decode is blocked
system.cpu.decode.RunCycles                  21489047                       # Number of cycles decode is running
system.cpu.decode.UnblockCycles              10394948                       # Number of cycles decode is unblocking
system.cpu.decode.SquashCycles                 265126                       # Number of cycles decode is squashing
system.cpu.decode.DecodedInsts              123566503                       # Number of instructions handled by decode
system.cpu.decode.SquashedInsts               1133547                       # Number of squashed instructions handled by decode
system.cpu.rename.SquashCycles                 265126                       # Number of cycles rename is squashing
system.cpu.rename.IdleCycles                 14265422                       # Number of cycles rename is idle
system.cpu.rename.BlockCycles                12870744                       # Number of cycles rename is blocking
system.cpu.rename.serializeStallCycles           4015                       # count of cycles rename stalled for serializing inst
system.cpu.rename.RunCycles                  24732650                       # Number of cycles rename is running
system.cpu.rename.UnblockCycles              20370097                       # Number of cycles rename is unblocking
system.cpu.rename.RenamedInsts              122056793                       # Number of instructions processed by rename
system.cpu.rename.SquashedInsts                457856                       # Number of squashed instructions processed by rename
system.cpu.rename.ROBFullEvents                    57                       # Number of times rename has blocked due to ROB full
system.cpu.rename.IQFullEvents               13152712                       # Number of times rename has blocked due to IQ full
system.cpu.rename.LQFullEvents                      1                       # Number of times rename has blocked due to LQ full
system.cpu.rename.SQFullEvents                3878972                       # Number of times rename has blocked due to SQ full
system.cpu.rename.FullRegisterEvents           201685                       # Number of times there has been no free registers
system.cpu.rename.RenamedOperands           144013385                       # Number of destination operands rename has renamed
system.cpu.rename.RenameLookups             299043043                       # Number of register rename lookups that rename has made
system.cpu.rename.int_rename_lookups        187641342                       # Number of integer rename lookups
system.cpu.rename.fp_rename_lookups            266438                       # Number of floating rename lookups
system.cpu.rename.CommittedMaps             130921918                       # Number of HB maps that are committed
system.cpu.rename.UndoneMaps                 13091467                       # Number of HB maps that are undone due to squashing
system.cpu.rename.serializingInsts                 59                       # count of serializing insts renamed
system.cpu.rename.tempSerializingInsts             57                       # count of temporary serializing insts renamed
system.cpu.rename.skidInsts                  33492638                       # count of insts added to the skid buffer
system.cpu.memDep0.insertedLoads             20651855                       # Number of loads inserted to the mem dependence unit.
system.cpu.memDep0.insertedStores             9540972                       # Number of stores inserted to the mem dependence unit.
system.cpu.memDep0.conflictingLoads           6568780                       # Number of conflicting loads.
system.cpu.memDep0.conflictingStores          1599691                       # Number of conflicting stores.
system.cpu.iq.iqInstsAdded                  120410822                       # Number of instructions added to the IQ (excludes non-spec)
system.cpu.iq.iqNonSpecInstsAdded                 318                       # Number of non-speculative instructions added to the IQ
system.cpu.iq.iqInstsIssued                 115784181                       # Number of instructions issued
system.cpu.iq.iqSquashedInstsIssued           1496674                       # Number of squashed instructions issued
system.cpu.iq.iqSquashedInstsExamined        10371454                       # Number of squashed instructions iterated over during squash; mainly for profiling
system.cpu.iq.iqSquashedOperandsExamined     14751836                       # Number of squashed operands that are examined and possibly removed from graph
system.cpu.iq.iqSquashedNonSpecRemoved            282                       # Number of squashed non-spec instructions that were removed
system.cpu.iq.issued_per_cycle::samples      72508054                       # Number of insts issued each cycle
system.cpu.iq.issued_per_cycle::mean         1.596846                       # Number of insts issued each cycle
system.cpu.iq.issued_per_cycle::stdev        1.064058                       # Number of insts issued each cycle
system.cpu.iq.issued_per_cycle::underflows            0      0.00%      0.00% # Number of insts issued each cycle
system.cpu.iq.issued_per_cycle::0            15740255     21.71%     21.71% # Number of insts issued each cycle
system.cpu.iq.issued_per_cycle::1            14142441     19.50%     41.21% # Number of insts issued each cycle
system.cpu.iq.issued_per_cycle::2            26427067     36.45%     77.66% # Number of insts issued each cycle
system.cpu.iq.issued_per_cycle::3            16005558     22.07%     99.73% # Number of insts issued each cycle
system.cpu.iq.issued_per_cycle::4              192733      0.27%    100.00% # Number of insts issued each cycle
system.cpu.iq.issued_per_cycle::overflows            0      0.00%    100.00% # Number of insts issued each cycle
system.cpu.iq.issued_per_cycle::min_value            0                       # Number of insts issued each cycle
system.cpu.iq.issued_per_cycle::max_value            4                       # Number of insts issued each cycle
system.cpu.iq.issued_per_cycle::total        72508054                       # Number of insts issued each cycle
system.cpu.iq.fu_full::No_OpClass                   0      0.00%      0.00% # attempts to use FU when none available
system.cpu.iq.fu_full::IntAlu                27408819     69.46%     69.46% # attempts to use FU when none available
system.cpu.iq.fu_full::IntMult                      0      0.00%     69.46% # attempts to use FU when none available
system.cpu.iq.fu_full::IntDiv                       0      0.00%     69.46% # attempts to use FU when none available
system.cpu.iq.fu_full::FloatAdd                     0      0.00%     69.46% # attempts to use FU when none available
system.cpu.iq.fu_full::FloatCmp                     0      0.00%     69.46% # attempts to use FU when none available
system.cpu.iq.fu_full::FloatCvt                     0      0.00%     69.46% # attempts to use FU when none available
system.cpu.iq.fu_full::FloatMult                    0      0.00%     69.46% # attempts to use FU when none available
system.cpu.iq.fu_full::FloatMultAcc                 0      0.00%     69.46% # attempts to use FU when none available
system.cpu.iq.fu_full::FloatDiv                     0      0.00%     69.46% # attempts to use FU when none available
system.cpu.iq.fu_full::FloatMisc                    0      0.00%     69.46% # attempts to use FU when none available
system.cpu.iq.fu_full::FloatSqrt                    0      0.00%     69.46% # attempts to use FU when none available
system.cpu.iq.fu_full::SimdAdd                    265      0.00%     69.46% # attempts to use FU when none available
system.cpu.iq.fu_full::SimdAddAcc                   0      0.00%     69.46% # attempts to use FU when none available
system.cpu.iq.fu_full::SimdAlu                     74      0.00%     69.46% # attempts to use FU when none available
system.cpu.iq.fu_full::SimdCmp                      0      0.00%     69.46% # attempts to use FU when none available
system.cpu.iq.fu_full::SimdCvt                     64      0.00%     69.46% # attempts to use FU when none available
system.cpu.iq.fu_full::SimdMisc                   147      0.00%     69.46% # attempts to use FU when none available
system.cpu.iq.fu_full::SimdMult                     0      0.00%     69.46% # attempts to use FU when none available
system.cpu.iq.fu_full::SimdMultAcc                  0      0.00%     69.46% # attempts to use FU when none available
system.cpu.iq.fu_full::SimdShift                  124      0.00%     69.46% # attempts to use FU when none available
system.cpu.iq.fu_full::SimdShiftAcc                 0      0.00%     69.46% # attempts to use FU when none available
system.cpu.iq.fu_full::SimdSqrt                     0      0.00%     69.46% # attempts to use FU when none available
system.cpu.iq.fu_full::SimdFloatAdd                 0      0.00%     69.46% # attempts to use FU when none available
system.cpu.iq.fu_full::SimdFloatAlu                 0      0.00%     69.46% # attempts to use FU when none available
system.cpu.iq.fu_full::SimdFloatCmp                 0      0.00%     69.46% # attempts to use FU when none available
system.cpu.iq.fu_full::SimdFloatCvt                 0      0.00%     69.46% # attempts to use FU when none available
system.cpu.iq.fu_full::SimdFloatDiv                 0      0.00%     69.46% # attempts to use FU when none available
system.cpu.iq.fu_full::SimdFloatMisc                0      0.00%     69.46% # attempts to use FU when none available
system.cpu.iq.fu_full::SimdFloatMult                0      0.00%     69.46% # attempts to use FU when none available
system.cpu.iq.fu_full::SimdFloatMultAcc             0      0.00%     69.46% # attempts to use FU when none available
system.cpu.iq.fu_full::SimdFloatSqrt                0      0.00%     69.46% # attempts to use FU when none available
system.cpu.iq.fu_full::SimdAes                      0      0.00%     69.46% # attempts to use FU when none available
system.cpu.iq.fu_full::SimdAesMix                   0      0.00%     69.46% # attempts to use FU when none available
system.cpu.iq.fu_full::SimdSha1Hash                 0      0.00%     69.46% # attempts to use FU when none available
system.cpu.iq.fu_full::SimdSha1Hash2                0      0.00%     69.46% # attempts to use FU when none available
system.cpu.iq.fu_full::SimdSha256Hash               0      0.00%     69.46% # attempts to use FU when none available
system.cpu.iq.fu_full::SimdSha256Hash2              0      0.00%     69.46% # attempts to use FU when none available
system.cpu.iq.fu_full::SimdShaSigma2                0      0.00%     69.46% # attempts to use FU when none available
system.cpu.iq.fu_full::SimdShaSigma3                0      0.00%     69.46% # attempts to use FU when none available
system.cpu.iq.fu_full::MemRead               10028848     25.42%     94.88% # attempts to use FU when none available
system.cpu.iq.fu_full::MemWrite               2021444      5.12%    100.00% # attempts to use FU when none available
system.cpu.iq.fu_full::FloatMemRead                 0      0.00%    100.00% # attempts to use FU when none available
system.cpu.iq.fu_full::FloatMemWrite                0      0.00%    100.00% # attempts to use FU when none available
system.cpu.iq.fu_full::IprAccess                    0      0.00%    100.00% # attempts to use FU when none available
system.cpu.iq.fu_full::InstPrefetch                 0      0.00%    100.00% # attempts to use FU when none available
system.cpu.iq.FU_type_0::No_OpClass            241216      0.21%      0.21% # Type of FU issued
system.cpu.iq.FU_type_0::IntAlu              85526291     73.87%     74.08% # Type of FU issued
system.cpu.iq.FU_type_0::IntMult               646197      0.56%     74.63% # Type of FU issued
system.cpu.iq.FU_type_0::IntDiv                    31      0.00%     74.63% # Type of FU issued
system.cpu.iq.FU_type_0::FloatAdd               65560      0.06%     74.69% # Type of FU issued
system.cpu.iq.FU_type_0::FloatCmp                   0      0.00%     74.69% # Type of FU issued
system.cpu.iq.FU_type_0::FloatCvt                   0      0.00%     74.69% # Type of FU issued
system.cpu.iq.FU_type_0::FloatMult                  0      0.00%     74.69% # Type of FU issued
system.cpu.iq.FU_type_0::FloatMultAcc               0      0.00%     74.69% # Type of FU issued
system.cpu.iq.FU_type_0::FloatDiv                   0      0.00%     74.69% # Type of FU issued
system.cpu.iq.FU_type_0::FloatMisc                  0      0.00%     74.69% # Type of FU issued
system.cpu.iq.FU_type_0::FloatSqrt                  0      0.00%     74.69% # Type of FU issued
system.cpu.iq.FU_type_0::SimdAdd                  377      0.00%     74.69% # Type of FU issued
system.cpu.iq.FU_type_0::SimdAddAcc                 0      0.00%     74.69% # Type of FU issued
system.cpu.iq.FU_type_0::SimdAlu                  100      0.00%     74.69% # Type of FU issued
system.cpu.iq.FU_type_0::SimdCmp                    0      0.00%     74.69% # Type of FU issued
system.cpu.iq.FU_type_0::SimdCvt                  148      0.00%     74.69% # Type of FU issued
system.cpu.iq.FU_type_0::SimdMisc                 258      0.00%     74.69% # Type of FU issued
system.cpu.iq.FU_type_0::SimdMult                   0      0.00%     74.69% # Type of FU issued
system.cpu.iq.FU_type_0::SimdMultAcc                0      0.00%     74.69% # Type of FU issued
system.cpu.iq.FU_type_0::SimdShift                186      0.00%     74.69% # Type of FU issued
system.cpu.iq.FU_type_0::SimdShiftAcc               0      0.00%     74.69% # Type of FU issued
system.cpu.iq.FU_type_0::SimdSqrt                   0      0.00%     74.69% # Type of FU issued
system.cpu.iq.FU_type_0::SimdFloatAdd               0      0.00%     74.69% # Type of FU issued
system.cpu.iq.FU_type_0::SimdFloatAlu               0      0.00%     74.69% # Type of FU issued
system.cpu.iq.FU_type_0::SimdFloatCmp               0      0.00%     74.69% # Type of FU issued
system.cpu.iq.FU_type_0::SimdFloatCvt               0      0.00%     74.69% # Type of FU issued
system.cpu.iq.FU_type_0::SimdFloatDiv               0      0.00%     74.69% # Type of FU issued
system.cpu.iq.FU_type_0::SimdFloatMisc              0      0.00%     74.69% # Type of FU issued
system.cpu.iq.FU_type_0::SimdFloatMult              0      0.00%     74.69% # Type of FU issued
system.cpu.iq.FU_type_0::SimdFloatMultAcc            0      0.00%     74.69% # Type of FU issued
system.cpu.iq.FU_type_0::SimdFloatSqrt              0      0.00%     74.69% # Type of FU issued
system.cpu.iq.FU_type_0::SimdAes                    0      0.00%     74.69% # Type of FU issued
system.cpu.iq.FU_type_0::SimdAesMix                 0      0.00%     74.69% # Type of FU issued
system.cpu.iq.FU_type_0::SimdSha1Hash               0      0.00%     74.69% # Type of FU issued
system.cpu.iq.FU_type_0::SimdSha1Hash2              0      0.00%     74.69% # Type of FU issued
system.cpu.iq.FU_type_0::SimdSha256Hash             0      0.00%     74.69% # Type of FU issued
system.cpu.iq.FU_type_0::SimdSha256Hash2            0      0.00%     74.69% # Type of FU issued
system.cpu.iq.FU_type_0::SimdShaSigma2              0      0.00%     74.69% # Type of FU issued
system.cpu.iq.FU_type_0::SimdShaSigma3              0      0.00%     74.69% # Type of FU issued
system.cpu.iq.FU_type_0::MemRead             19993788     17.27%     91.96% # Type of FU issued
system.cpu.iq.FU_type_0::MemWrite             8785035      7.59%     99.55% # Type of FU issued
system.cpu.iq.FU_type_0::FloatMemRead          262310      0.23%     99.77% # Type of FU issued
system.cpu.iq.FU_type_0::FloatMemWrite         262684      0.23%    100.00% # Type of FU issued
system.cpu.iq.FU_type_0::IprAccess                  0      0.00%    100.00% # Type of FU issued
system.cpu.iq.FU_type_0::InstPrefetch               0      0.00%    100.00% # Type of FU issued
system.cpu.iq.FU_type_0::total              115784181                       # Type of FU issued
system.cpu.iq.rate                           1.596074                       # Inst issue rate
system.cpu.iq.fu_busy_cnt                    39459785                       # FU busy when requested
system.cpu.iq.fu_busy_rate                   0.340805                       # FU busy rate (busy events/executed inst)
system.cpu.iq.int_inst_queue_reads          343847792                       # Number of integer instruction queue reads
system.cpu.iq.int_inst_queue_writes         130190621                       # Number of integer instruction queue writes
system.cpu.iq.int_inst_queue_wakeup_accesses    113783071                       # Number of integer instruction queue wakeup accesses
system.cpu.iq.fp_inst_queue_reads             1185083                       # Number of floating instruction queue reads
system.cpu.iq.fp_inst_queue_writes             592522                       # Number of floating instruction queue writes
system.cpu.iq.fp_inst_queue_wakeup_accesses       592099                       # Number of floating instruction queue wakeup accesses
system.cpu.iq.vec_inst_queue_reads                  0                       # Number of vector instruction queue reads
system.cpu.iq.vec_inst_queue_writes                 0                       # Number of vector instruction queue writes
system.cpu.iq.vec_inst_queue_wakeup_accesses            0                       # Number of vector instruction queue wakeup accesses
system.cpu.iq.int_alu_accesses              154409827                       # Number of integer alu accesses
system.cpu.iq.fp_alu_accesses                  592923                       # Number of floating point alu accesses
system.cpu.iq.vec_alu_accesses                      0                       # Number of vector alu accesses
system.cpu.iew.lsq.thread0.forwLoads          2543262                       # Number of loads that had data forwarded from stores
system.cpu.iew.lsq.thread0.invAddrLoads             0                       # Number of loads ignored due to an invalid address
system.cpu.iew.lsq.thread0.squashedLoads      1601973                       # Number of loads squashed
system.cpu.iew.lsq.thread0.ignoredResponses        22010                       # Number of memory responses ignored because the instruction is squashed
system.cpu.iew.lsq.thread0.memOrderViolation          549                       # Number of memory ordering violations
system.cpu.iew.lsq.thread0.squashedStores       889448                       # Number of stores squashed
system.cpu.iew.lsq.thread0.invAddrSwpfs             0                       # Number of software prefetches ignored due to an invalid address
system.cpu.iew.lsq.thread0.blockedLoads             0                       # Number of blocked loads due to partial load-store forwarding
system.cpu.iew.lsq.thread0.rescheduledLoads            1                       # Number of loads that were rescheduled
system.cpu.iew.lsq.thread0.cacheBlocked            56                       # Number of times an access to memory failed due to the cache being blocked
system.cpu.iew.iewIdleCycles                        0                       # Number of cycles IEW is idle
system.cpu.iew.iewSquashCycles                 265126                       # Number of cycles IEW is squashing
system.cpu.iew.iewBlockCycles                 2483859                       # Number of cycles IEW is blocking
system.cpu.iew.iewUnblockCycles                968042                       # Number of cycles IEW is unblocking
system.cpu.iew.iewDispatchedInsts           120411140                       # Number of instructions dispatched to IQ
system.cpu.iew.iewDispSquashedInsts            256235                       # Number of squashed instructions skipped by dispatch
system.cpu.iew.iewDispLoadInsts              20651855                       # Number of dispatched load instructions
system.cpu.iew.iewDispStoreInsts              9540972                       # Number of dispatched store instructions
system.cpu.iew.iewDispNonSpecInsts                136                       # Number of dispatched non-speculative instructions
system.cpu.iew.iewIQFullEvents                 668826                       # Number of times the IQ has become full, causing a stall
system.cpu.iew.iewLSQFullEvents                  6412                       # Number of times the LSQ has become full, causing a stall
system.cpu.iew.memOrderViolationEvents            549                       # Number of memory order violations
system.cpu.iew.predictedTakenIncorrect            882                       # Number of branches that were predicted taken incorrectly
system.cpu.iew.predictedNotTakenIncorrect       300016                       # Number of branches that were predicted not taken incorrectly
system.cpu.iew.branchMispredicts               300898                       # Number of branch mispredicts detected at execute
system.cpu.iew.iewExecutedInsts             114573933                       # Number of executed instructions
system.cpu.iew.iewExecLoadInsts              20095355                       # Number of load instructions executed
system.cpu.iew.iewExecSquashedInsts           1210248                       # Number of squashed instructions skipped in execute
system.cpu.iew.exec_swp                             0                       # number of swp insts executed
system.cpu.iew.exec_nop                             0                       # number of nop insts executed
system.cpu.iew.exec_refs                     29004317                       # number of memory reference insts executed
system.cpu.iew.exec_branches                 10864866                       # Number of branches executed
system.cpu.iew.exec_stores                    8908962                       # Number of stores executed
system.cpu.iew.exec_rate                     1.579391                       # Inst execution rate
system.cpu.iew.wb_sent                      114375529                       # cumulative count of insts sent to commit
system.cpu.iew.wb_count                     114375170                       # cumulative count of insts written-back
system.cpu.iew.wb_producers                  86301603                       # num instructions producing a value
system.cpu.iew.wb_consumers                 125287034                       # num instructions consuming a value
system.cpu.iew.wb_rate                       1.576651                       # insts written-back per cycle
system.cpu.iew.wb_fanout                     0.688831                       # average fanout of values written-back
system.cpu.commit.commitSquashedInsts         9776523                       # The number of squashed insts skipped by commit
system.cpu.commit.commitNonSpecStalls              36                       # The number of times commit has been forced to stall to communicate backwards
system.cpu.commit.branchMispredicts            264594                       # The number of times a branch was mispredicted
system.cpu.commit.committed_per_cycle::samples     72066929                       # Number of insts commited each cycle
system.cpu.commit.committed_per_cycle::mean     1.526910                       # Number of insts commited each cycle
system.cpu.commit.committed_per_cycle::stdev     1.647807                       # Number of insts commited each cycle
system.cpu.commit.committed_per_cycle::underflows            0      0.00%      0.00% # Number of insts commited each cycle
system.cpu.commit.committed_per_cycle::0     31866899     44.22%     44.22% # Number of insts commited each cycle
system.cpu.commit.committed_per_cycle::1     10889573     15.11%     59.33% # Number of insts commited each cycle
system.cpu.commit.committed_per_cycle::2      5243396      7.28%     66.60% # Number of insts commited each cycle
system.cpu.commit.committed_per_cycle::3      7604924     10.55%     77.16% # Number of insts commited each cycle
system.cpu.commit.committed_per_cycle::4     16462137     22.84%    100.00% # Number of insts commited each cycle
system.cpu.commit.committed_per_cycle::overflows            0      0.00%    100.00% # Number of insts commited each cycle
system.cpu.commit.committed_per_cycle::min_value            0                       # Number of insts commited each cycle
system.cpu.commit.committed_per_cycle::max_value            4                       # Number of insts commited each cycle
system.cpu.commit.committed_per_cycle::total     72066929                       # Number of insts commited each cycle
system.cpu.commit.committedInsts             62525833                       # Number of instructions committed
system.cpu.commit.committedOps              110039685                       # Number of ops (including micro ops) committed
system.cpu.commit.swp_count                         0                       # Number of s/w prefetches committed
system.cpu.commit.refs                       27701406                       # Number of memory references committed
system.cpu.commit.loads                      19049882                       # Number of loads committed
system.cpu.commit.membars                           0                       # Number of memory barriers committed
system.cpu.commit.branches                   10575287                       # Number of branches committed
system.cpu.commit.vec_insts                         0                       # Number of committed Vector instructions.
system.cpu.commit.fp_insts                     591928                       # Number of committed floating point instructions.
system.cpu.commit.int_insts                 109906472                       # Number of committed integer instructions.
system.cpu.commit.function_calls               329514                       # Number of function calls committed.
system.cpu.commit.op_class_0::No_OpClass        66156      0.06%      0.06% # Class of committed instruction
system.cpu.commit.op_class_0::IntAlu         81559305     74.12%     74.18% # Class of committed instruction
system.cpu.commit.op_class_0::IntMult          646190      0.59%     74.77% # Class of committed instruction
system.cpu.commit.op_class_0::IntDiv               28      0.00%     74.77% # Class of committed instruction
system.cpu.commit.op_class_0::FloatAdd          65551      0.06%     74.83% # Class of committed instruction
system.cpu.commit.op_class_0::FloatCmp              0      0.00%     74.83% # Class of committed instruction
system.cpu.commit.op_class_0::FloatCvt              0      0.00%     74.83% # Class of committed instruction
system.cpu.commit.op_class_0::FloatMult             0      0.00%     74.83% # Class of committed instruction
system.cpu.commit.op_class_0::FloatMultAcc            0      0.00%     74.83% # Class of committed instruction
system.cpu.commit.op_class_0::FloatDiv              0      0.00%     74.83% # Class of committed instruction
system.cpu.commit.op_class_0::FloatMisc             0      0.00%     74.83% # Class of committed instruction
system.cpu.commit.op_class_0::FloatSqrt             0      0.00%     74.83% # Class of committed instruction
system.cpu.commit.op_class_0::SimdAdd             374      0.00%     74.83% # Class of committed instruction
system.cpu.commit.op_class_0::SimdAddAcc            0      0.00%     74.83% # Class of committed instruction
system.cpu.commit.op_class_0::SimdAlu              94      0.00%     74.83% # Class of committed instruction
system.cpu.commit.op_class_0::SimdCmp               0      0.00%     74.83% # Class of committed instruction
system.cpu.commit.op_class_0::SimdCvt             140      0.00%     74.83% # Class of committed instruction
system.cpu.commit.op_class_0::SimdMisc            255      0.00%     74.83% # Class of committed instruction
system.cpu.commit.op_class_0::SimdMult              0      0.00%     74.83% # Class of committed instruction
system.cpu.commit.op_class_0::SimdMultAcc            0      0.00%     74.83% # Class of committed instruction
system.cpu.commit.op_class_0::SimdShift           186      0.00%     74.83% # Class of committed instruction
system.cpu.commit.op_class_0::SimdShiftAcc            0      0.00%     74.83% # Class of committed instruction
system.cpu.commit.op_class_0::SimdSqrt              0      0.00%     74.83% # Class of committed instruction
system.cpu.commit.op_class_0::SimdFloatAdd            0      0.00%     74.83% # Class of committed instruction
system.cpu.commit.op_class_0::SimdFloatAlu            0      0.00%     74.83% # Class of committed instruction
system.cpu.commit.op_class_0::SimdFloatCmp            0      0.00%     74.83% # Class of committed instruction
system.cpu.commit.op_class_0::SimdFloatCvt            0      0.00%     74.83% # Class of committed instruction
system.cpu.commit.op_class_0::SimdFloatDiv            0      0.00%     74.83% # Class of committed instruction
system.cpu.commit.op_class_0::SimdFloatMisc            0      0.00%     74.83% # Class of committed instruction
system.cpu.commit.op_class_0::SimdFloatMult            0      0.00%     74.83% # Class of committed instruction
system.cpu.commit.op_class_0::SimdFloatMultAcc            0      0.00%     74.83% # Class of committed instruction
system.cpu.commit.op_class_0::SimdFloatSqrt            0      0.00%     74.83% # Class of committed instruction
system.cpu.commit.op_class_0::SimdAes               0      0.00%     74.83% # Class of committed instruction
system.cpu.commit.op_class_0::SimdAesMix            0      0.00%     74.83% # Class of committed instruction
system.cpu.commit.op_class_0::SimdSha1Hash            0      0.00%     74.83% # Class of committed instruction
system.cpu.commit.op_class_0::SimdSha1Hash2            0      0.00%     74.83% # Class of committed instruction
system.cpu.commit.op_class_0::SimdSha256Hash            0      0.00%     74.83% # Class of committed instruction
system.cpu.commit.op_class_0::SimdSha256Hash2            0      0.00%     74.83% # Class of committed instruction
system.cpu.commit.op_class_0::SimdShaSigma2            0      0.00%     74.83% # Class of committed instruction
system.cpu.commit.op_class_0::SimdShaSigma3            0      0.00%     74.83% # Class of committed instruction
system.cpu.commit.op_class_0::MemRead        18787650     17.07%     91.90% # Class of committed instruction
system.cpu.commit.op_class_0::MemWrite        8388953      7.62%     99.52% # Class of committed instruction
system.cpu.commit.op_class_0::FloatMemRead       262232      0.24%     99.76% # Class of committed instruction
system.cpu.commit.op_class_0::FloatMemWrite       262571      0.24%    100.00% # Class of committed instruction
system.cpu.commit.op_class_0::IprAccess             0      0.00%    100.00% # Class of committed instruction
system.cpu.commit.op_class_0::InstPrefetch            0      0.00%    100.00% # Class of committed instruction
system.cpu.commit.op_class_0::total         110039685                       # Class of committed instruction
system.cpu.commit.bw_lim_events              16462137                       # number cycles where commit BW limit reached
system.cpu.rob.rob_reads                    175421000                       # The number of ROB reads
system.cpu.rob.rob_writes                   240073542                       # The number of ROB writes
system.cpu.timesIdled                             434                       # Number of times that the entire CPU went into an idle state and unscheduled itself
system.cpu.idleCycles                           35048                       # Total number of cycles that the CPU has spent unscheduled due to idling
system.cpu.committedInsts                    62525833                       # Number of Instructions Simulated
system.cpu.committedOps                     110039685                       # Number of Ops (including micro ops) Simulated
system.cpu.cpi                               1.160210                       # CPI: Cycles Per Instruction
system.cpu.cpi_total                         1.160210                       # CPI: Total CPI of All Threads
system.cpu.ipc                               0.861913                       # IPC: Instructions Per Cycle
system.cpu.ipc_total                         0.861913                       # IPC: Total IPC of All Threads
system.cpu.int_regfile_reads                175746099                       # number of integer regfile reads
system.cpu.int_regfile_writes                94677225                       # number of integer regfile writes
system.cpu.fp_regfile_reads                    266302                       # number of floating regfile reads
system.cpu.fp_regfile_writes                   329361                       # number of floating regfile writes
system.cpu.cc_regfile_reads                  51690345                       # number of cc regfile reads
system.cpu.cc_regfile_writes                 40540399                       # number of cc regfile writes
system.cpu.misc_regfile_reads                51714011                       # number of misc regfile reads
system.cpu.dcache.tags.pwrStateResidencyTicks::UNDEFINED  36271550500                       # Cumulative time (in ticks) in various power states
system.cpu.dcache.tags.tagsinuse           511.401169                       # Cycle average of tags in use
system.cpu.dcache.tags.total_refs            26203077                       # Total number of references to valid blocks.
system.cpu.dcache.tags.sampled_refs             15242                       # Sample count of references to valid blocks.
system.cpu.dcache.tags.avg_refs           1719.136399                       # Average number of references to valid blocks.
system.cpu.dcache.tags.warmup_cycle            169500                       # Cycle when the warmup percentage was hit.
system.cpu.dcache.tags.occ_blocks::.cpu.data   511.401169                       # Average occupied blocks per requestor
system.cpu.dcache.tags.occ_percent::.cpu.data     0.998830                       # Average percentage of cache occupancy
system.cpu.dcache.tags.occ_percent::total     0.998830                       # Average percentage of cache occupancy
system.cpu.dcache.tags.occ_task_id_blocks::1024          512                       # Occupied blocks per task id
system.cpu.dcache.tags.age_task_id_blocks_1024::0          137                       # Occupied blocks per task id
system.cpu.dcache.tags.age_task_id_blocks_1024::1          373                       # Occupied blocks per task id
system.cpu.dcache.tags.age_task_id_blocks_1024::4            2                       # Occupied blocks per task id
system.cpu.dcache.tags.occ_task_id_percent::1024            1                       # Percentage of cache occupancy per task id
system.cpu.dcache.tags.tag_accesses         209642586                       # Number of tag accesses
system.cpu.dcache.tags.data_accesses        209642586                       # Number of data accesses
system.cpu.dcache.pwrStateResidencyTicks::UNDEFINED  36271550500                       # Cumulative time (in ticks) in various power states
system.cpu.dcache.ReadReq_hits::.cpu.data     17545326                       # number of ReadReq hits
system.cpu.dcache.ReadReq_hits::total        17545326                       # number of ReadReq hits
system.cpu.dcache.WriteReq_hits::.cpu.data      8641941                       # number of WriteReq hits
system.cpu.dcache.WriteReq_hits::total        8641941                       # number of WriteReq hits
system.cpu.dcache.demand_hits::.cpu.data     26187267                       # number of demand (read+write) hits
system.cpu.dcache.demand_hits::total         26187267                       # number of demand (read+write) hits
system.cpu.dcache.overall_hits::.cpu.data     26187267                       # number of overall hits
system.cpu.dcache.overall_hits::total        26187267                       # number of overall hits
system.cpu.dcache.ReadReq_misses::.cpu.data         6568                       # number of ReadReq misses
system.cpu.dcache.ReadReq_misses::total          6568                       # number of ReadReq misses
system.cpu.dcache.WriteReq_misses::.cpu.data         9583                       # number of WriteReq misses
system.cpu.dcache.WriteReq_misses::total         9583                       # number of WriteReq misses
system.cpu.dcache.demand_misses::.cpu.data        16151                       # number of demand (read+write) misses
system.cpu.dcache.demand_misses::total          16151                       # number of demand (read+write) misses
system.cpu.dcache.overall_misses::.cpu.data        16151                       # number of overall misses
system.cpu.dcache.overall_misses::total         16151                       # number of overall misses
system.cpu.dcache.ReadReq_miss_latency::.cpu.data    247286000                       # number of ReadReq miss cycles
system.cpu.dcache.ReadReq_miss_latency::total    247286000                       # number of ReadReq miss cycles
system.cpu.dcache.WriteReq_miss_latency::.cpu.data    784490498                       # number of WriteReq miss cycles
system.cpu.dcache.WriteReq_miss_latency::total    784490498                       # number of WriteReq miss cycles
system.cpu.dcache.demand_miss_latency::.cpu.data   1031776498                       # number of demand (read+write) miss cycles
system.cpu.dcache.demand_miss_latency::total   1031776498                       # number of demand (read+write) miss cycles
system.cpu.dcache.overall_miss_latency::.cpu.data   1031776498                       # number of overall miss cycles
system.cpu.dcache.overall_miss_latency::total   1031776498                       # number of overall miss cycles
system.cpu.dcache.ReadReq_accesses::.cpu.data     17551894                       # number of ReadReq accesses(hits+misses)
system.cpu.dcache.ReadReq_accesses::total     17551894                       # number of ReadReq accesses(hits+misses)
system.cpu.dcache.WriteReq_accesses::.cpu.data      8651524                       # number of WriteReq accesses(hits+misses)
system.cpu.dcache.WriteReq_accesses::total      8651524                       # number of WriteReq accesses(hits+misses)
system.cpu.dcache.demand_accesses::.cpu.data     26203418                       # number of demand (read+write) accesses
system.cpu.dcache.demand_accesses::total     26203418                       # number of demand (read+write) accesses
system.cpu.dcache.overall_accesses::.cpu.data     26203418                       # number of overall (read+write) accesses
system.cpu.dcache.overall_accesses::total     26203418                       # number of overall (read+write) accesses
system.cpu.dcache.ReadReq_miss_rate::.cpu.data     0.000374                       # miss rate for ReadReq accesses
system.cpu.dcache.ReadReq_miss_rate::total     0.000374                       # miss rate for ReadReq accesses
system.cpu.dcache.WriteReq_miss_rate::.cpu.data     0.001108                       # miss rate for WriteReq accesses
system.cpu.dcache.WriteReq_miss_rate::total     0.001108                       # miss rate for WriteReq accesses
system.cpu.dcache.demand_miss_rate::.cpu.data     0.000616                       # miss rate for demand accesses
system.cpu.dcache.demand_miss_rate::total     0.000616                       # miss rate for demand accesses
system.cpu.dcache.overall_miss_rate::.cpu.data     0.000616                       # miss rate for overall accesses
[...]
system.l3cache.tags.occ_percent::.cpu.data     0.144499                       # Average percentage of cache occupancy
system.l3cache.tags.occ_percent::total       0.166100                       # Average percentage of cache occupancy
system.l3cache.tags.occ_task_id_blocks::1024         9586                       # Occupied blocks per task id
system.l3cache.tags.age_task_id_blocks_1024::0           63                       # Occupied blocks per task id
system.l3cache.tags.age_task_id_blocks_1024::1           29                       # Occupied blocks per task id
system.l3cache.tags.age_task_id_blocks_1024::2          208                       # Occupied blocks per task id
system.l3cache.tags.age_task_id_blocks_1024::3         2080                       # Occupied blocks per task id
system.l3cache.tags.age_task_id_blocks_1024::4         7206                       # Occupied blocks per task id
system.l3cache.tags.occ_task_id_percent::1024     0.292542                       # Percentage of cache occupancy per task id
system.l3cache.tags.tag_accesses               394562                       # Number of tag accesses
system.l3cache.tags.data_accesses              394562                       # Number of data accesses
system.l3cache.pwrStateResidencyTicks::UNDEFINED  36271550500                       # Cumulative time (in ticks) in various power states
system.l3cache.WritebackDirty_hits::.writebacks         9486                       # number of WritebackDirty hits
system.l3cache.WritebackDirty_hits::total         9486                       # number of WritebackDirty hits
system.l3cache.ReadExReq_hits::.cpu.data          312                       # number of ReadExReq hits
system.l3cache.ReadExReq_hits::total              312                       # number of ReadExReq hits
system.l3cache.ReadSharedReq_hits::.cpu.inst           18                       # number of ReadSharedReq hits
system.l3cache.ReadSharedReq_hits::.cpu.data         4659                       # number of ReadSharedReq hits
system.l3cache.ReadSharedReq_hits::total         4677                       # number of ReadSharedReq hits
system.l3cache.demand_hits::.cpu.inst              18                       # number of demand (read+write) hits
system.l3cache.demand_hits::.cpu.data            4971                       # number of demand (read+write) hits
system.l3cache.demand_hits::total                4989                       # number of demand (read+write) hits
system.l3cache.overall_hits::.cpu.inst             18                       # number of overall hits
system.l3cache.overall_hits::.cpu.data           4971                       # number of overall hits
system.l3cache.overall_hits::total               4989                       # number of overall hits
system.l3cache.ReadExReq_misses::.cpu.data         8489                       # number of ReadExReq misses
system.l3cache.ReadExReq_misses::total           8489                       # number of ReadExReq misses
system.l3cache.ReadSharedReq_misses::.cpu.inst          806                       # number of ReadSharedReq misses
system.l3cache.ReadSharedReq_misses::.cpu.data          291                       # number of ReadSharedReq misses
system.l3cache.ReadSharedReq_misses::total         1097                       # number of ReadSharedReq misses
system.l3cache.demand_misses::.cpu.inst           806                       # number of demand (read+write) misses
system.l3cache.demand_misses::.cpu.data          8780                       # number of demand (read+write) misses
system.l3cache.demand_misses::total              9586                       # number of demand (read+write) misses
system.l3cache.overall_misses::.cpu.inst          806                       # number of overall misses
system.l3cache.overall_misses::.cpu.data         8780                       # number of overall misses
system.l3cache.overall_misses::total             9586                       # number of overall misses
system.l3cache.ReadExReq_miss_latency::.cpu.data    652815500                       # number of ReadExReq miss cycles
system.l3cache.ReadExReq_miss_latency::total    652815500                       # number of ReadExReq miss cycles
system.l3cache.ReadSharedReq_miss_latency::.cpu.inst     61265000                       # number of ReadSharedReq miss cycles
system.l3cache.ReadSharedReq_miss_latency::.cpu.data     31769500                       # number of ReadSharedReq miss cycles
system.l3cache.ReadSharedReq_miss_latency::total     93034500                       # number of ReadSharedReq miss cycles
system.l3cache.demand_miss_latency::.cpu.inst     61265000                       # number of demand (read+write) miss cycles
system.l3cache.demand_miss_latency::.cpu.data    684585000                       # number of demand (read+write) miss cycles
system.l3cache.demand_miss_latency::total    745850000                       # number of demand (read+write) miss cycles
system.l3cache.overall_miss_latency::.cpu.inst     61265000                       # number of overall miss cycles
system.l3cache.overall_miss_latency::.cpu.data    684585000                       # number of overall miss cycles
system.l3cache.overall_miss_latency::total    745850000                       # number of overall miss cycles
system.l3cache.WritebackDirty_accesses::.writebacks         9486                       # number of WritebackDirty accesses(hits+misses)
system.l3cache.WritebackDirty_accesses::total         9486                       # number of WritebackDirty accesses(hits+misses)
system.l3cache.ReadExReq_accesses::.cpu.data         8801                       # number of ReadExReq accesses(hits+misses)
system.l3cache.ReadExReq_accesses::total         8801                       # number of ReadExReq accesses(hits+misses)
system.l3cache.ReadSharedReq_accesses::.cpu.inst          824                       # number of ReadSharedReq accesses(hits+misses)
system.l3cache.ReadSharedReq_accesses::.cpu.data         4950                       # number of ReadSharedReq accesses(hits+misses)
system.l3cache.ReadSharedReq_accesses::total         5774                       # number of ReadSharedReq accesses(hits+misses)
system.l3cache.demand_accesses::.cpu.inst          824                       # number of demand (read+write) accesses
system.l3cache.demand_accesses::.cpu.data        13751                       # number of demand (read+write) accesses
system.l3cache.demand_accesses::total           14575                       # number of demand (read+write) accesses
system.l3cache.overall_accesses::.cpu.inst          824                       # number of overall (read+write) accesses
system.l3cache.overall_accesses::.cpu.data        13751                       # number of overall (read+write) accesses
system.l3cache.overall_accesses::total          14575                       # number of overall (read+write) accesses
system.l3cache.ReadExReq_miss_rate::.cpu.data     0.964549                       # miss rate for ReadExReq accesses
system.l3cache.ReadExReq_miss_rate::total     0.964549                       # miss rate for ReadExReq accesses
system.l3cache.ReadSharedReq_miss_rate::.cpu.inst     0.978155                       # miss rate for ReadSharedReq accesses
system.l3cache.ReadSharedReq_miss_rate::.cpu.data     0.058788                       # miss rate for ReadSharedReq accesses
system.l3cache.ReadSharedReq_miss_rate::total     0.189990                       # miss rate for ReadSharedReq accesses
system.l3cache.demand_miss_rate::.cpu.inst     0.978155                       # miss rate for demand accesses
system.l3cache.demand_miss_rate::.cpu.data     0.638499                       # miss rate for demand accesses
system.l3cache.demand_miss_rate::total       0.657702                       # miss rate for demand accesses
system.l3cache.overall_miss_rate::.cpu.inst     0.978155                       # miss rate for overall accesses
system.l3cache.overall_miss_rate::.cpu.data     0.638499                       # miss rate for overall accesses
system.l3cache.overall_miss_rate::total      0.657702                       # miss rate for overall accesses
system.l3cache.ReadExReq_avg_miss_latency::.cpu.data 76901.342914                       # average ReadExReq miss latency
system.l3cache.ReadExReq_avg_miss_latency::total 76901.342914                       # average ReadExReq miss latency
system.l3cache.ReadSharedReq_avg_miss_latency::.cpu.inst 76011.166253                       # average ReadSharedReq miss latency
system.l3cache.ReadSharedReq_avg_miss_latency::.cpu.data 109173.539519                       # average ReadSharedReq miss latency
system.l3cache.ReadSharedReq_avg_miss_latency::total 84808.113036                       # average ReadSharedReq miss latency
system.l3cache.demand_avg_miss_latency::.cpu.inst 76011.166253                       # average overall miss latency
system.l3cache.demand_avg_miss_latency::.cpu.data 77970.956720                       # average overall miss latency
system.l3cache.demand_avg_miss_latency::total 77806.175673                       # average overall miss latency
system.l3cache.overall_avg_miss_latency::.cpu.inst 76011.166253                       # average overall miss latency
system.l3cache.overall_avg_miss_latency::.cpu.data 77970.956720                       # average overall miss latency
system.l3cache.overall_avg_miss_latency::total 77806.175673                       # average overall miss latency
system.l3cache.blocked_cycles::no_mshrs             0                       # number of cycles access was blocked
system.l3cache.blocked_cycles::no_targets            0                       # number of cycles access was blocked
system.l3cache.blocked::no_mshrs                    0                       # number of cycles access was blocked
system.l3cache.blocked::no_targets                  0                       # number of cycles access was blocked
system.l3cache.avg_blocked_cycles::no_mshrs          nan                       # average number of cycles each access was blocked
system.l3cache.avg_blocked_cycles::no_targets          nan                       # average number of cycles each access was blocked
system.l3cache.ReadExReq_mshr_misses::.cpu.data         8489                       # number of ReadExReq MSHR misses
system.l3cache.ReadExReq_mshr_misses::total         8489                       # number of ReadExReq MSHR misses
system.l3cache.ReadSharedReq_mshr_misses::.cpu.inst          806                       # number of ReadSharedReq MSHR misses
system.l3cache.ReadSharedReq_mshr_misses::.cpu.data          291                       # number of ReadSharedReq MSHR misses
system.l3cache.ReadSharedReq_mshr_misses::total         1097                       # number of ReadSharedReq MSHR misses
system.l3cache.demand_mshr_misses::.cpu.inst          806                       # number of demand (read+write) MSHR misses
system.l3cache.demand_mshr_misses::.cpu.data         8780                       # number of demand (read+write) MSHR misses
system.l3cache.demand_mshr_misses::total         9586                       # number of demand (read+write) MSHR misses
system.l3cache.overall_mshr_misses::.cpu.inst          806                       # number of overall MSHR misses
system.l3cache.overall_mshr_misses::.cpu.data         8780                       # number of overall MSHR misses
system.l3cache.overall_mshr_misses::total         9586                       # number of overall MSHR misses
system.l3cache.ReadExReq_mshr_miss_latency::.cpu.data    635837500                       # number of ReadExReq MSHR miss cycles
system.l3cache.ReadExReq_mshr_miss_latency::total    635837500                       # number of ReadExReq MSHR miss cycles
system.l3cache.ReadSharedReq_mshr_miss_latency::.cpu.inst     59653000                       # number of ReadSharedReq MSHR miss cycles
system.l3cache.ReadSharedReq_mshr_miss_latency::.cpu.data     31187500                       # number of ReadSharedReq MSHR miss cycles
system.l3cache.ReadSharedReq_mshr_miss_latency::total     90840500                       # number of ReadSharedReq MSHR miss cycles
system.l3cache.demand_mshr_miss_latency::.cpu.inst     59653000                       # number of demand (read+write) MSHR miss cycles
system.l3cache.demand_mshr_miss_latency::.cpu.data    667025000                       # number of demand (read+write) MSHR miss cycles
system.l3cache.demand_mshr_miss_latency::total    726678000                       # number of demand (read+write) MSHR miss cycles
system.l3cache.overall_mshr_miss_latency::.cpu.inst     59653000                       # number of overall MSHR miss cycles
system.l3cache.overall_mshr_miss_latency::.cpu.data    667025000                       # number of overall MSHR miss cycles
system.l3cache.overall_mshr_miss_latency::total    726678000                       # number of overall MSHR miss cycles
system.l3cache.ReadExReq_mshr_miss_rate::.cpu.data     0.964549                       # mshr miss rate for ReadExReq accesses
system.l3cache.ReadExReq_mshr_miss_rate::total     0.964549                       # mshr miss rate for ReadExReq accesses
system.l3cache.ReadSharedReq_mshr_miss_rate::.cpu.inst     0.978155                       # mshr miss rate for ReadSharedReq accesses
system.l3cache.ReadSharedReq_mshr_miss_rate::.cpu.data     0.058788                       # mshr miss rate for ReadSharedReq accesses
system.l3cache.ReadSharedReq_mshr_miss_rate::total     0.189990                       # mshr miss rate for ReadSharedReq accesses
system.l3cache.demand_mshr_miss_rate::.cpu.inst     0.978155                       # mshr miss rate for demand accesses
system.l3cache.demand_mshr_miss_rate::.cpu.data     0.638499                       # mshr miss rate for demand accesses
system.l3cache.demand_mshr_miss_rate::total     0.657702                       # mshr miss rate for demand accesses
system.l3cache.overall_mshr_miss_rate::.cpu.inst     0.978155                       # mshr miss rate for overall accesses
system.l3cache.overall_mshr_miss_rate::.cpu.data     0.638499                       # mshr miss rate for overall accesses
system.l3cache.overall_mshr_miss_rate::total     0.657702                       # mshr miss rate for overall accesses
system.l3cache.ReadExReq_avg_mshr_miss_latency::.cpu.data 74901.342914                       # average ReadExReq mshr miss latency
system.l3cache.ReadExReq_avg_mshr_miss_latency::total 74901.342914                       # average ReadExReq mshr miss latency
system.l3cache.ReadSharedReq_avg_mshr_miss_latency::.cpu.inst 74011.166253                       # average ReadSharedReq mshr miss latency
system.l3cache.ReadSharedReq_avg_mshr_miss_latency::.cpu.data 107173.539519                       # average ReadSharedReq mshr miss latency
system.l3cache.ReadSharedReq_avg_mshr_miss_latency::total 82808.113036                       # average ReadSharedReq mshr miss latency
system.l3cache.demand_avg_mshr_miss_latency::.cpu.inst 74011.166253                       # average overall mshr miss latency
system.l3cache.demand_avg_mshr_miss_latency::.cpu.data 75970.956720                       # average overall mshr miss latency
system.l3cache.demand_avg_mshr_miss_latency::total 75806.175673                       # average overall mshr miss latency
system.l3cache.overall_avg_mshr_miss_latency::.cpu.inst 74011.166253                       # average overall mshr miss latency
system.l3cache.overall_avg_mshr_miss_latency::.cpu.data 75970.956720                       # average overall mshr miss latency
system.l3cache.overall_avg_mshr_miss_latency::total 75806.175673                       # average overall mshr miss latency
system.l3cache.replacements                         0                       # number of replacements
system.membus.snoop_filter.tot_requests          9586                       # Total number of requests made to the snoop filter.
system.membus.snoop_filter.hit_single_requests            0                       # Number of requests hitting in the snoop filter with a single holder of the requested data.
system.membus.snoop_filter.hit_multi_requests            0                       # Number of requests hitting in the snoop filter with multiple (>1) holders of the requested data.
system.membus.snoop_filter.tot_snoops               0                       # Total number of snoops made to the snoop filter.
system.membus.snoop_filter.hit_single_snoops            0                       # Number of snoops hitting in the snoop filter with a single holder of the requested data.
system.membus.snoop_filter.hit_multi_snoops            0                       # Number of snoops hitting in the snoop filter with multiple (>1) holders of the requested data.
system.membus.pwrStateResidencyTicks::UNDEFINED  36271550500                       # Cumulative time (in ticks) in various power states
system.membus.trans_dist::ReadResp               1097                       # Transaction distribution
system.membus.trans_dist::ReadExReq              8489                       # Transaction distribution
system.membus.trans_dist::ReadExResp             8489                       # Transaction distribution
system.membus.trans_dist::ReadSharedReq          1097                       # Transaction distribution
system.membus.pkt_count_system.l3cache.mem_side::system.mem_ctrl.port        19172                       # Packet count per connected master and slave (bytes)
system.membus.pkt_count_system.l3cache.mem_side::total        19172                       # Packet count per connected master and slave (bytes)
system.membus.pkt_count::total                  19172                       # Packet count per connected master and slave (bytes)
system.membus.pkt_size_system.l3cache.mem_side::system.mem_ctrl.port       613504                       # Cumulative packet size per connected master and slave (bytes)
system.membus.pkt_size_system.l3cache.mem_side::total       613504                       # Cumulative packet size per connected master and slave (bytes)
system.membus.pkt_size::total                  613504                       # Cumulative packet size per connected master and slave (bytes)
system.membus.snoops                                0                       # Total snoops (count)
system.membus.snoopTraffic                          0                       # Total snoop traffic (bytes)
system.membus.snoop_fanout::samples              9586                       # Request fanout histogram
system.membus.snoop_fanout::mean                    0                       # Request fanout histogram
system.membus.snoop_fanout::stdev                   0                       # Request fanout histogram
system.membus.snoop_fanout::underflows              0      0.00%      0.00% # Request fanout histogram
system.membus.snoop_fanout::0                    9586    100.00%    100.00% # Request fanout histogram
system.membus.snoop_fanout::1                       0      0.00%    100.00% # Request fanout histogram
system.membus.snoop_fanout::overflows               0      0.00%    100.00% # Request fanout histogram
system.membus.snoop_fanout::min_value               0                       # Request fanout histogram
system.membus.snoop_fanout::max_value               0                       # Request fanout histogram
system.membus.snoop_fanout::total                9586                       # Request fanout histogram
system.membus.reqLayer0.occupancy             4793000                       # Layer occupancy (ticks)
system.membus.reqLayer0.utilization               0.0                       # Layer utilization (%)
system.membus.respLayer0.occupancy           25155750                       # Layer occupancy (ticks)
system.membus.respLayer0.utilization              0.1                       # Layer utilization (%)

---------- End Simulation Statistics   ----------