
---------- Begin Simulation Statistics ----------
sim_seconds                                  0.000046                       # Number of seconds simulated
sim_ticks                                    45602000                       # Number of ticks simulated
final_tick                                   45602000                       # Number of ticks from beginning of simulation (restored from checkpoints and never reset)
sim_freq                                 1000000000000                       # Frequency of simulated ticks
host_inst_rate                                  39674                       # Simulator instruction rate (inst/s)
host_op_rate                                    80042                       # Simulator op (including micro ops) rate (op/s)
host_tick_rate                              233764440                       # Simulator tick rate (ticks/s)
host_mem_usage                                 655160                       # Number of bytes of host memory used
host_seconds                                     0.20                       # Real time elapsed on the host
sim_insts                                        7739                       # Number of instructions simulated
sim_ops                                         15614                       # Number of ops (including micro ops) simulated
system.clk_domain.voltage_domain.voltage            1                       # Voltage in Volts
system.clk_domain.clock                           500                       # Clock period in ticks
system.mem_ctrl.pwrStateResidencyTicks::UNDEFINED     45602000                       # Cumulative time (in ticks) in various power states
system.mem_ctrl.bytes_read::.cpu.inst           32512                       # Number of bytes read from this memory
system.mem_ctrl.bytes_read::.cpu.data           16128                       # Number of bytes read from this memory
system.mem_ctrl.bytes_read::total               48640                       # Number of bytes read from this memory
system.mem_ctrl.bytes_inst_read::.cpu.inst        32512                       # Number of instructions bytes read from this memory
system.mem_ctrl.bytes_inst_read::total          32512                       # Number of instructions bytes read from this memory
system.mem_ctrl.num_reads::.cpu.inst              508                       # Number of read requests responded to by this memory
system.mem_ctrl.num_reads::.cpu.data              252                       # Number of read requests responded to by this memory
system.mem_ctrl.num_reads::total                  760                       # Number of read requests responded to by this memory
system.mem_ctrl.bw_read::.cpu.inst          712951186                       # Total read bandwidth from this memory (bytes/s)
system.mem_ctrl.bw_read::.cpu.data          353668699                       # Total read bandwidth from this memory (bytes/s)
system.mem_ctrl.bw_read::total             1066619885                       # Total read bandwidth from this memory (bytes/s)
system.mem_ctrl.bw_inst_read::.cpu.inst     712951186                       # Instruction read bandwidth from this memory (bytes/s)
system.mem_ctrl.bw_inst_read::total         712951186                       # Instruction read bandwidth from this memory (bytes/s)
system.mem_ctrl.bw_total::.cpu.inst         712951186                       # Total bandwidth to/from this memory (bytes/s)
system.mem_ctrl.bw_total::.cpu.data         353668699                       # Total bandwidth to/from this memory (bytes/s)
system.mem_ctrl.bw_total::total            1066619885                       # Total bandwidth to/from this memory (bytes/s)
system.mem_ctrl.avgPriority_.cpu.inst::samples       508.00                       # Average QoS priority value for accepted requests
system.mem_ctrl.avgPriority_.cpu.data::samples       252.00                       # Average QoS priority value for accepted requests
system.mem_ctrl.priorityMinLatency       0.000000018750                       # per QoS priority minimum request to response latency (s)
system.mem_ctrl.priorityMaxLatency       0.000000558750                       # per QoS priority maximum request to response latency (s)
system.mem_ctrl.numReadWriteTurnArounds             0                       # Number of turnarounds from READ to WRITE
system.mem_ctrl.numWriteReadTurnArounds             0                       # Number of turnarounds from WRITE to READ
system.mem_ctrl.numStayReadState                 1504                       # Number of times bus staying in READ state
system.mem_ctrl.numStayWriteState                   0                       # Number of times bus staying in WRITE state
system.mem_ctrl.readReqs                          760                       # Number of read requests accepted
system.mem_ctrl.writeReqs                           0                       # Number of write requests accepted
system.mem_ctrl.readBursts                        760                       # Number of DRAM read bursts, including those serviced by the write queue
system.mem_ctrl.writeBursts                         0                       # Number of DRAM write bursts, including those merged in the write queue
system.mem_ctrl.bytesReadDRAM                   48640                       # Total number of bytes read from DRAM
system.mem_ctrl.bytesReadWrQ                        0                       # Total number of bytes read from write queue
system.mem_ctrl.bytesWritten                        0                       # Total number of bytes written to DRAM
system.mem_ctrl.bytesReadSys                    48640                       # Total read bytes from the system interface side
system.mem_ctrl.bytesWrittenSys                     0                       # Total written bytes from the system interface side
system.mem_ctrl.servicedByWrQ                       0                       # Number of DRAM read bursts serviced by the write queue
system.mem_ctrl.mergedWrBursts                      0                       # Number of DRAM write bursts merged with an existing one
system.mem_ctrl.neitherReadNorWriteReqs             0                       # Number of requests that are neither read nor write
system.mem_ctrl.perBankRdBursts::0                 99                       # Per bank write bursts
system.mem_ctrl.perBankRdBursts::1                 26                       # Per bank write bursts
system.mem_ctrl.perBankRdBursts::2                 31                       # Per bank write bursts
system.mem_ctrl.perBankRdBursts::3                 13                       # Per bank write bursts
system.mem_ctrl.perBankRdBursts::4                 22                       # Per bank write bursts
system.mem_ctrl.perBankRdBursts::5                 11                       # Per bank write bursts
system.mem_ctrl.perBankRdBursts::6                 68                       # Per bank write bursts
system.mem_ctrl.perBankRdBursts::7                 34                       # Per bank write bursts
system.mem_ctrl.perBankRdBursts::8                  4                       # Per bank write bursts
system.mem_ctrl.perBankRdBursts::9                 30                       # Per bank write bursts
system.mem_ctrl.perBankRdBursts::10               114                       # Per bank write bursts
system.mem_ctrl.perBankRdBursts::11                60                       # Per bank write bursts
system.mem_ctrl.perBankRdBursts::12                43                       # Per bank write bursts
system.mem_ctrl.perBankRdBursts::13                64                       # Per bank write bursts
system.mem_ctrl.perBankRdBursts::14                82                       # Per bank write bursts
system.mem_ctrl.perBankRdBursts::15                59                       # Per bank write bursts
system.mem_ctrl.perBankWrBursts::0                  0                       # Per bank write bursts
system.mem_ctrl.perBankWrBursts::1                  0                       # Per bank write bursts
system.mem_ctrl.perBankWrBursts::2                  0                       # Per bank write bursts
system.mem_ctrl.perBankWrBursts::3                  0                       # Per bank write bursts
system.mem_ctrl.perBankWrBursts::4                  0                       # Per bank write bursts
system.mem_ctrl.perBankWrBursts::5                  0                       # Per bank write bursts
system.mem_ctrl.perBankWrBursts::6                  0                       # Per bank write bursts
system.mem_ctrl.perBankWrBursts::7                  0                       # Per bank write bursts
system.mem_ctrl.perBankWrBursts::8                  0                       # Per bank write bursts
system.mem_ctrl.perBankWrBursts::9                  0                       # Per bank write bursts
system.mem_ctrl.perBankWrBursts::10                 0                       # Per bank write bursts
system.mem_ctrl.perBankWrBursts::11                 0                       # Per bank write bursts
system.mem_ctrl.perBankWrBursts::12                 0                       # Per bank write bursts
system.mem_ctrl.perBankWrBursts::13                 0                       # Per bank write bursts
system.mem_ctrl.perBankWrBursts::14                 0                       # Per bank write bursts
system.mem_ctrl.perBankWrBursts::15                 0                       # Per bank write bursts
system.mem_ctrl.numRdRetry                          0                       # Number of times read queue was full causing retry
system.mem_ctrl.numWrRetry                          0                       # Number of times write queue was full causing retry
system.mem_ctrl.totGap                       45510000                       # Total gap between requests
system.mem_ctrl.readPktSize::0                      0                       # Read request sizes (log2)
system.mem_ctrl.readPktSize::1                      0                       # Read request sizes (log2)
system.mem_ctrl.readPktSize::2                      0                       # Read request sizes (log2)
system.mem_ctrl.readPktSize::3                      0                       # Read request sizes (log2)
system.mem_ctrl.readPktSize::4                      0                       # Read request sizes (log2)
system.mem_ctrl.readPktSize::5                      0                       # Read request sizes (log2)
system.mem_ctrl.readPktSize::6                    760                       # Read request sizes (log2)
system.mem_ctrl.writePktSize::0                     0                       # Write request sizes (log2)
system.mem_ctrl.writePktSize::1                     0                       # Write request sizes (log2)
system.mem_ctrl.writePktSize::2                     0                       # Write request sizes (log2)
system.mem_ctrl.writePktSize::3                     0                       # Write request sizes (log2)
system.mem_ctrl.writePktSize::4                     0                       # Write request sizes (log2)
system.mem_ctrl.writePktSize::5                     0                       # Write request sizes (log2)
system.mem_ctrl.writePktSize::6                     0                       # Write request sizes (log2)
system.mem_ctrl.rdQLenPdf::0                      490                       # What read queue length does an incoming req see
system.mem_ctrl.rdQLenPdf::1                      208                       # What read queue length does an incoming req see
system.mem_ctrl.rdQLenPdf::2                       52                       # What read queue length does an incoming req see
system.mem_ctrl.rdQLenPdf::3                        9                       # What read queue length does an incoming req see
system.mem_ctrl.rdQLenPdf::4                        1                       # What read queue length does an incoming req see
system.mem_ctrl.rdQLenPdf::5                        0                       # What read queue length does an incoming req see
system.mem_ctrl.rdQLenPdf::6                        0                       # What read queue length does an incoming req see
system.mem_ctrl.rdQLenPdf::7                        0                       # What read queue length does an incoming req see
system.mem_ctrl.rdQLenPdf::8                        0                       # What read queue length does an incoming req see
system.mem_ctrl.rdQLenPdf::9                        0                       # What read queue length does an incoming req see
system.mem_ctrl.rdQLenPdf::10                       0                       # What read queue length does an incoming req see
system.mem_ctrl.rdQLenPdf::11                       0                       # What read queue length does an incoming req see
system.mem_ctrl.rdQLenPdf::12                       0                       # What read queue length does an incoming req see
system.mem_ctrl.rdQLenPdf::13                       0                       # What read queue length does an incoming req see
system.mem_ctrl.rdQLenPdf::14                       0                       # What read queue length does an incoming req see
system.mem_ctrl.rdQLenPdf::15                       0                       # What read queue length does an incoming req see
system.mem_ctrl.rdQLenPdf::16                       0                       # What read queue length does an incoming req see
system.mem_ctrl.rdQLenPdf::17                       0                       # What read queue length does an incoming req see
system.mem_ctrl.rdQLenPdf::18                       0                       # What read queue length does an incoming req see
system.mem_ctrl.rdQLenPdf::19                       0                       # What read queue length does an incoming req see
system.mem_ctrl.rdQLenPdf::20                       0                       # What read queue length does an incoming req see
system.mem_ctrl.rdQLenPdf::21                       0                       # What read queue length does an incoming req see
system.mem_ctrl.rdQLenPdf::22                       0                       # What read queue length does an incoming req see
system.mem_ctrl.rdQLenPdf::23                       0                       # What read queue length does an incoming req see
system.mem_ctrl.rdQLenPdf::24                       0                       # What read queue length does an incoming req see
system.mem_ctrl.rdQLenPdf::25                       0                       # What read queue length does an incoming req see
system.mem_ctrl.rdQLenPdf::26                       0                       # What read queue length does an incoming req see
system.mem_ctrl.rdQLenPdf::27                       0                       # What read queue length does an incoming req see
system.mem_ctrl.rdQLenPdf::28                       0                       # What read queue length does an incoming req see
system.mem_ctrl.rdQLenPdf::29                       0                       # What read queue length does an incoming req see
system.mem_ctrl.rdQLenPdf::30                       0                       # What read queue length does an incoming req see
system.mem_ctrl.rdQLenPdf::31                       0                       # What read queue length does an incoming req see
system.mem_ctrl.wrQLenPdf::0                        0                       # What write queue length does an incoming req see
system.mem_ctrl.wrQLenPdf::1                        0                       # What write queue length does an incoming req see
system.mem_ctrl.wrQLenPdf::2                        0                       # What write queue length does an incoming req see
system.mem_ctrl.wrQLenPdf::3                        0                       # What write queue length does an incoming req see
system.mem_ctrl.wrQLenPdf::4                        0                       # What write queue length does an incoming req see
system.mem_ctrl.wrQLenPdf::5                        0                       # What write queue length does an incoming req see
system.mem_ctrl.wrQLenPdf::6                        0                       # What write queue length does an incoming req see
system.mem_ctrl.wrQLenPdf::7                        0                       # What write queue length does an incoming req see
system.mem_ctrl.wrQLenPdf::8                        0                       # What write queue length does an incoming req see
system.mem_ctrl.wrQLenPdf::9                        0                       # What write queue length does an incoming req see
system.mem_ctrl.wrQLenPdf::10                       0                       # What write queue length does an incoming req see
system.mem_ctrl.wrQLenPdf::11                       0                       # What write queue length does an incoming req see
system.mem_ctrl.wrQLenPdf::12                       0                       # What write queue length does an incoming req see
system.mem_ctrl.wrQLenPdf::13                       0                       # What write queue length does an incoming req see
system.mem_ctrl.wrQLenPdf::14                       0                       # What write queue length does an incoming req see
system.mem_ctrl.wrQLenPdf::15                       0                       # What write queue length does an incoming req see
system.mem_ctrl.wrQLenPdf::16                       0                       # What write queue length does an incoming req see
system.mem_ctrl.wrQLenPdf::17                       0                       # What write queue length does an incoming req see
system.mem_ctrl.wrQLenPdf::18                       0                       # What write queue length does an incoming req see
system.mem_ctrl.wrQLenPdf::19                       0                       # What write queue length does an incoming req see
system.mem_ctrl.wrQLenPdf::20                       0                       # What write queue length does an incoming req see
system.mem_ctrl.wrQLenPdf::21                       0                       # What write queue length does an incoming req see
system.mem_ctrl.wrQLenPdf::22                       0                       # What write queue length does an incoming req see
system.mem_ctrl.wrQLenPdf::23                       0                       # What write queue length does an incoming req see
system.mem_ctrl.wrQLenPdf::24                       0                       # What write queue length does an incoming req see
system.mem_ctrl.wrQLenPdf::25                       0                       # What write queue length does an incoming req see
system.mem_ctrl.wrQLenPdf::26                       0                       # What write queue length does an incoming req see
system.mem_ctrl.wrQLenPdf::27                       0                       # What write queue length does an incoming req see
system.mem_ctrl.wrQLenPdf::28                       0                       # What write queue length does an incoming req see
system.mem_ctrl.wrQLenPdf::29                       0                       # What write queue length does an incoming req see
system.mem_ctrl.wrQLenPdf::30                       0                       # What write queue length does an incoming req see
system.mem_ctrl.wrQLenPdf::31                       0                       # What write queue length does an incoming req see
system.mem_ctrl.wrQLenPdf::32                       0                       # What write queue length does an incoming req see
system.mem_ctrl.wrQLenPdf::33                       0                       # What write queue length does an incoming req see
system.mem_ctrl.wrQLenPdf::34                       0                       # What write queue length does an incoming req see
system.mem_ctrl.wrQLenPdf::35                       0                       # What write queue length does an incoming req see
system.mem_ctrl.wrQLenPdf::36                       0                       # What write queue length does an incoming req see
system.mem_ctrl.wrQLenPdf::37                       0                       # What write queue length does an incoming req see
system.mem_ctrl.wrQLenPdf::38                       0                       # What write queue length does an incoming req see
system.mem_ctrl.wrQLenPdf::39                       0                       # What write queue length does an incoming req see
system.mem_ctrl.wrQLenPdf::40                       0                       # What write queue length does an incoming req see
system.mem_ctrl.wrQLenPdf::41                       0                       # What write queue length does an incoming req see
system.mem_ctrl.wrQLenPdf::42                       0                       # What write queue length does an incoming req see
system.mem_ctrl.wrQLenPdf::43                       0                       # What write queue length does an incoming req see
system.mem_ctrl.wrQLenPdf::44                       0                       # What write queue length does an incoming req see
system.mem_ctrl.wrQLenPdf::45                       0                       # What write queue length does an incoming req see
system.mem_ctrl.wrQLenPdf::46                       0                       # What write queue length does an incoming req see
system.mem_ctrl.wrQLenPdf::47                       0                       # What write queue length does an incoming req see
system.mem_ctrl.wrQLenPdf::48                       0                       # What write queue length does an incoming req see
system.mem_ctrl.wrQLenPdf::49                       0                       # What write queue length does an incoming req see
system.mem_ctrl.wrQLenPdf::50                       0                       # What write queue length does an incoming req see
system.mem_ctrl.wrQLenPdf::51                       0                       # What write queue length does an incoming req see
system.mem_ctrl.wrQLenPdf::52                       0                       # What write queue length does an incoming req see
system.mem_ctrl.wrQLenPdf::53                       0                       # What write queue length does an incoming req see
system.mem_ctrl.wrQLenPdf::54                       0                       # What write queue length does an incoming req see
system.mem_ctrl.wrQLenPdf::55                       0                       # What write queue length does an incoming req see
system.mem_ctrl.wrQLenPdf::56                       0                       # What write queue length does an incoming req see
system.mem_ctrl.wrQLenPdf::57                       0                       # What write queue length does an incoming req see
system.mem_ctrl.wrQLenPdf::58                       0                       # What write queue length does an incoming req see
system.mem_ctrl.wrQLenPdf::59                       0                       # What write queue length does an incoming req see
system.mem_ctrl.wrQLenPdf::60                       0                       # What write queue length does an incoming req see
system.mem_ctrl.wrQLenPdf::61                       0                       # What write queue length does an incoming req see
system.mem_ctrl.wrQLenPdf::62                       0                       # What write queue length does an incoming req see
system.mem_ctrl.wrQLenPdf::63                       0                       # What write queue length does an incoming req see
system.mem_ctrl.bytesPerActivate::samples          149                       # Bytes accessed per row activation
system.mem_ctrl.bytesPerActivate::mean     313.557047                       # Bytes accessed per row activation
system.mem_ctrl.bytesPerActivate::gmean    204.461988                       # Bytes accessed per row activation
system.mem_ctrl.bytesPerActivate::stdev    294.391066                       # Bytes accessed per row activation
system.mem_ctrl.bytesPerActivate::0-127            42     28.19%     28.19% # Bytes accessed per row activation
system.mem_ctrl.bytesPerActivate::128-255           37     24.83%     53.02% # Bytes accessed per row activation
system.mem_ctrl.bytesPerActivate::256-383           24     16.11%     69.13% # Bytes accessed per row activation
system.mem_ctrl.bytesPerActivate::384-511           14      9.40%     78.52% # Bytes accessed per row activation
system.mem_ctrl.bytesPerActivate::512-639            8      5.37%     83.89% # Bytes accessed per row activation
system.mem_ctrl.bytesPerActivate::640-767            5      3.36%     87.25% # Bytes accessed per row activation
system.mem_ctrl.bytesPerActivate::768-895            3      2.01%     89.26% # Bytes accessed per row activation
system.mem_ctrl.bytesPerActivate::896-1023            5      3.36%     92.62% # Bytes accessed per row activation
system.mem_ctrl.bytesPerActivate::1024-1151           11      7.38%    100.00% # Bytes accessed per row activation
system.mem_ctrl.bytesPerActivate::total           149                       # Bytes accessed per row activation
system.mem_ctrl.masterReadBytes::.cpu.inst        32512                       # Per-master bytes read from memory
system.mem_ctrl.masterReadBytes::.cpu.data        16128                       # Per-master bytes read from memory
system.mem_ctrl.masterReadRate::.cpu.inst 712951186.351475834846                       # Per-master bytes read from memory rate (Bytes/sec)
system.mem_ctrl.masterReadRate::.cpu.data 353668698.741283237934                       # Per-master bytes read from memory rate (Bytes/sec)
system.mem_ctrl.masterReadAccesses::.cpu.inst          508                       # Per-master read serviced memory accesses
system.mem_ctrl.masterReadAccesses::.cpu.data          252                       # Per-master read serviced memory accesses
system.mem_ctrl.masterReadTotalLat::.cpu.inst     16584750                       # Per-master read total memory access latency
system.mem_ctrl.masterReadTotalLat::.cpu.data      8249000                       # Per-master read total memory access latency
system.mem_ctrl.masterReadAvgLat::.cpu.inst     32647.15                       # Per-master read average memory access latency
system.mem_ctrl.masterReadAvgLat::.cpu.data     32734.13                       # Per-master read average memory access latency
system.mem_ctrl.totQLat                      10583750                       # Total ticks spent queuing
system.mem_ctrl.totMemAccLat                 24833750                       # Total ticks spent from burst creation until serviced by the DRAM
system.mem_ctrl.totBusLat                     3800000                       # Total ticks spent in databus transfers
system.mem_ctrl.avgQLat                      13925.99                       # Average queueing delay per DRAM burst
system.mem_ctrl.avgBusLat                     5000.00                       # Average bus latency per DRAM burst
system.mem_ctrl.avgMemAccLat                 32675.99                       # Average memory access latency per DRAM burst
system.mem_ctrl.avgRdBW                       1066.62                       # Average DRAM read bandwidth in MiByte/s
system.mem_ctrl.avgWrBW                          0.00                       # Average achieved write bandwidth in MiByte/s
system.mem_ctrl.avgRdBWSys                    1066.62                       # Average system read bandwidth in MiByte/s
system.mem_ctrl.avgWrBWSys                       0.00                       # Average system write bandwidth in MiByte/s
system.mem_ctrl.peakBW                       12800.00                       # Theoretical peak bandwidth in MiByte/s
system.mem_ctrl.busUtil                          8.33                       # Data bus utilization in percentage
system.mem_ctrl.busUtilRead                      8.33                       # Data bus utilization in percentage for reads
system.mem_ctrl.busUtilWrite                     0.00                       # Data bus utilization in percentage for writes
system.mem_ctrl.avgRdQLen                        1.52                       # Average read queue length when enqueuing
system.mem_ctrl.avgWrQLen                        0.00                       # Average write queue length when enqueuing
system.mem_ctrl.readRowHits                       602                       # Number of row buffer hits during reads
system.mem_ctrl.writeRowHits                        0                       # Number of row buffer hits during writes
system.mem_ctrl.readRowHitRate                  79.21                       # Row buffer hit rate for reads
system.mem_ctrl.writeRowHitRate                   nan                       # Row buffer hit rate for writes
system.mem_ctrl.avgGap                       59881.58                       # Average gap between requests
system.mem_ctrl.pageHitRate                     79.21                       # Row buffer hit rate, read and write combined
system.mem_ctrl_0.actEnergy                    428400                       # Energy for activate commands per rank (pJ)
system.mem_ctrl_0.preEnergy                    212520                       # Energy for precharge commands per rank (pJ)
system.mem_ctrl_0.readEnergy                  2170560                       # Energy for read commands per rank (pJ)
system.mem_ctrl_0.writeEnergy                       0                       # Energy for write commands per rank (pJ)
system.mem_ctrl_0.refreshEnergy          3073200.000000                       # Energy for refresh commands per rank (pJ)
system.mem_ctrl_0.actBackEnergy               4178100                       # Energy for active background per rank (pJ)
system.mem_ctrl_0.preBackEnergy                 79680                       # Energy for precharge background per rank (pJ)
system.mem_ctrl_0.actPowerDownEnergy         15359220                       # Energy for active power-down per rank (pJ)
system.mem_ctrl_0.prePowerDownEnergy           979200                       # Energy for precharge power-down per rank (pJ)
system.mem_ctrl_0.selfRefreshEnergy                 0                       # Energy for self refresh per rank (pJ)
system.mem_ctrl_0.totalEnergy                26480880                       # Total energy per rank (pJ)
system.mem_ctrl_0.averagePower             580.695584                       # Core power per rank (mW)
system.mem_ctrl_0.totalIdleTime              36192500                       # Total Idle time Per DRAM Rank
system.mem_ctrl_0.memoryStateTime::IDLE         42500                       # Time in different power states
system.mem_ctrl_0.memoryStateTime::REF        1300000                       # Time in different power states
system.mem_ctrl_0.memoryStateTime::SREF             0                       # Time in different power states
system.mem_ctrl_0.memoryStateTime::PRE_PDN      2549000                       # Time in different power states
system.mem_ctrl_0.memoryStateTime::ACT        8018250                       # Time in different power states
system.mem_ctrl_0.memoryStateTime::ACT_PDN     33692250                       # Time in different power states
system.mem_ctrl_1.actEnergy                    699720                       # Energy for activate commands per rank (pJ)
system.mem_ctrl_1.preEnergy                    352935                       # Energy for precharge commands per rank (pJ)
system.mem_ctrl_1.readEnergy                  3255840                       # Energy for read commands per rank (pJ)
system.mem_ctrl_1.writeEnergy                       0                       # Energy for write commands per rank (pJ)
system.mem_ctrl_1.refreshEnergy          3073200.000000                       # Energy for refresh commands per rank (pJ)
system.mem_ctrl_1.actBackEnergy               5623050                       # Energy for active background per rank (pJ)
system.mem_ctrl_1.preBackEnergy                124320                       # Energy for precharge background per rank (pJ)
system.mem_ctrl_1.actPowerDownEnergy         14811450                       # Energy for active power-down per rank (pJ)
system.mem_ctrl_1.prePowerDownEnergy           179040                       # Energy for precharge power-down per rank (pJ)
system.mem_ctrl_1.selfRefreshEnergy                 0                       # Energy for self refresh per rank (pJ)
system.mem_ctrl_1.totalEnergy                28119555                       # Total energy per rank (pJ)
system.mem_ctrl_1.averagePower             616.629863                       # Core power per rank (mW)
system.mem_ctrl_1.totalIdleTime              32799250                       # Total Idle time Per DRAM Rank
system.mem_ctrl_1.memoryStateTime::IDLE        130500                       # Time in different power states
system.mem_ctrl_1.memoryStateTime::REF        1300000                       # Time in different power states
system.mem_ctrl_1.memoryStateTime::SREF             0                       # Time in different power states
system.mem_ctrl_1.memoryStateTime::PRE_PDN       465250                       # Time in different power states
system.mem_ctrl_1.memoryStateTime::ACT       11210500                       # Time in different power states
system.mem_ctrl_1.memoryStateTime::ACT_PDN     32495750                       # Time in different power states
system.pwrStateResidencyTicks::UNDEFINED     45602000                       # Cumulative time (in ticks) in various power states
system.cpu.branchPred.lookups                    3997                       # Number of BP lookups
system.cpu.branchPred.condPredicted              3997                       # Number of conditional branches predicted
system.cpu.branchPred.condIncorrect               854                       # Number of conditional branches incorrect
system.cpu.branchPred.BTBLookups                 3606                       # Number of BTB lookups
system.cpu.branchPred.BTBHits                       0                       # Number of BTB hits
system.cpu.branchPred.BTBCorrect                    0                       # Number of correct BTB predictions (this stat may not work properly.
system.cpu.branchPred.BTBHitPct              0.000000                       # BTB Hit Percentage
system.cpu.branchPred.usedRAS                     302                       # Number of times the RAS was used to get a target.
system.cpu.branchPred.RASInCorrect                141                       # Number of incorrect RAS predictions.
system.cpu.branchPred.indirectLookups            3606                       # Number of indirect predictor lookups.
system.cpu.branchPred.indirectHits                443                       # Number of indirect target hits.
system.cpu.branchPred.indirectMisses             3163                       # Number of indirect misses.
system.cpu.branchPredindirectMispredicted          667                       # Number of mispredicted indirect branches.
system.cpu.dtb.walker.pwrStateResidencyTicks::UNDEFINED     45602000                       # Cumulative time (in ticks) in various power states
system.cpu.dtb.rdAccesses                        2184                       # TLB accesses on read requests
system.cpu.dtb.wrAccesses                        1822                       # TLB accesses on write requests
system.cpu.dtb.rdMisses                            89                       # TLB misses on read requests
system.cpu.dtb.wrMisses                            26                       # TLB misses on write requests
system.cpu.apic_clk_domain.clock                 8000                       # Clock period in ticks
system.cpu.interrupts.pwrStateResidencyTicks::UNDEFINED     45602000                       # Cumulative time (in ticks) in various power states
system.cpu.itb.walker.pwrStateResidencyTicks::UNDEFINED     45602000                       # Cumulative time (in ticks) in various power states
system.cpu.itb.rdAccesses                           0                       # TLB accesses on read requests
system.cpu.itb.wrAccesses                        2618                       # TLB accesses on write requests
system.cpu.itb.rdMisses                             0                       # TLB misses on read requests
system.cpu.itb.wrMisses                           141                       # TLB misses on write requests
system.cpu.workload.numSyscalls                    11                       # Number of system calls
system.cpu.pwrStateResidencyTicks::ON        45602000                       # Cumulative time (in ticks) in various power states
system.cpu.numCycles                            91205                       # number of cpu cycles simulated
system.cpu.numWorkItemsStarted                      0                       # number of work items this cpu started
system.cpu.numWorkItemsCompleted                    0                       # number of work items this cpu completed
system.cpu.fetch.icacheStallCycles              32528                       # Number of cycles fetch is stalled on an Icache miss
system.cpu.fetch.Insts                          18308                       # Number of instructions fetch has processed
system.cpu.fetch.Branches                        3997                       # Number of branches that fetch encountered
system.cpu.fetch.predictedBranches                745                       # Number of branches that fetch has predicted taken
system.cpu.fetch.Cycles                         30955                       # Number of cycles fetch has run and was not squashing or blocked
system.cpu.fetch.SquashCycles                    1848                       # Number of cycles fetch has spent squashing
system.cpu.fetch.TlbCycles                         70                       # Number of cycles fetch has spent waiting for tlb
system.cpu.fetch.MiscStallCycles                   68                       # Number of cycles fetch has spent waiting on interrupts, or bad addresses, or out of MSHRs
system.cpu.fetch.PendingTrapStallCycles           808                       # Number of stall cycles due to pending traps
system.cpu.fetch.PendingQuiesceStallCycles           18                       # Number of stall cycles due to pending quiesce instructions
system.cpu.fetch.CacheLines                      2525                       # Number of cache lines fetched
system.cpu.fetch.IcacheSquashes                   286                       # Number of outstanding Icache misses that were squashed
system.cpu.fetch.ItlbSquashes                       1                       # Number of outstanding ITLB misses that were squashed
system.cpu.fetch.rateDist::samples              65371                       # Number of instructions fetched each cycle (Total)
system.cpu.fetch.rateDist::mean              0.560034                       # Number of instructions fetched each cycle (Total)
system.cpu.fetch.rateDist::stdev             0.890563                       # Number of instructions fetched each cycle (Total)
system.cpu.fetch.rateDist::underflows               0      0.00%      0.00% # Number of instructions fetched each cycle (Total)
system.cpu.fetch.rateDist::0                    46630     71.33%     71.33% # Number of instructions fetched each cycle (Total)
system.cpu.fetch.rateDist::1                      872      1.33%     72.67% # Number of instructions fetched each cycle (Total)
system.cpu.fetch.rateDist::2                    17869     27.33%    100.00% # Number of instructions fetched each cycle (Total)
system.cpu.fetch.rateDist::overflows                0      0.00%    100.00% # Number of instructions fetched each cycle (Total)
system.cpu.fetch.rateDist::min_value                0                       # Number of instructions fetched each cycle (Total)
system.cpu.fetch.rateDist::max_value                2                       # Number of instructions fetched each cycle (Total)
system.cpu.fetch.rateDist::total                65371                       # Number of instructions fetched each cycle (Total)
system.cpu.fetch.branchRate                  0.043824                       # Number of branch fetches per cycle
system.cpu.fetch.rate                        0.200735                       # Number of inst fetches per cycle
system.cpu.decode.IdleCycles                    32468                       # Number of cycles decode is idle
system.cpu.decode.BlockedCycles                 14800                       # Number of cycles decode is blocked
system.cpu.decode.RunCycles                     16769                       # Number of cycles decode is running
system.cpu.decode.UnblockCycles                   410                       # Number of cycles decode is unblocking
system.cpu.decode.SquashCycles                    924                       # Number of cycles decode is squashing
system.cpu.decode.DecodedInsts                  31717                       # Number of instructions handled by decode
system.cpu.decode.SquashedInsts                  1933                       # Number of squashed instructions handled by decode
system.cpu.rename.SquashCycles                    924                       # Number of cycles rename is squashing
system.cpu.rename.IdleCycles                    34310                       # Number of cycles rename is idle
system.cpu.rename.BlockCycles                    4386                       # Number of cycles rename is blocking
system.cpu.rename.serializeStallCycles           1251                       # count of cycles rename stalled for serializing inst
system.cpu.rename.RunCycles                     15311                       # Number of cycles rename is running
system.cpu.rename.UnblockCycles                  9189                       # Number of cycles rename is unblocking
system.cpu.rename.RenamedInsts                  29487                       # Number of instructions processed by rename
system.cpu.rename.SquashedInsts                   974                       # Number of squashed instructions processed by rename
system.cpu.rename.ROBFullEvents                    23                       # Number of times rename has blocked due to ROB full
system.cpu.rename.IQFullEvents                     66                       # Number of times rename has blocked due to IQ full
system.cpu.rename.SQFullEvents                   8903                       # Number of times rename has blocked due to SQ full
system.cpu.rename.FullRegisterEvents               11                       # Number of times there has been no free registers
system.cpu.rename.RenamedOperands               31832                       # Number of destination operands rename has renamed
system.cpu.rename.RenameLookups                 72440                       # Number of register rename lookups that rename has made
system.cpu.rename.int_rename_lookups            40250                       # Number of integer rename lookups
system.cpu.rename.fp_rename_lookups              4017                       # Number of floating rename lookups
system.cpu.rename.CommittedMaps                 16825                       # Number of HB maps that are committed
system.cpu.rename.UndoneMaps                    15007                       # Number of HB maps that are undone due to squashing
system.cpu.rename.serializingInsts                 24                       # count of serializing insts renamed
system.cpu.rename.tempSerializingInsts             21                       # count of temporary serializing insts renamed
system.cpu.rename.skidInsts                       833                       # count of insts added to the skid buffer
system.cpu.memDep0.insertedLoads                 2835                       # Number of loads inserted to the mem dependence unit.
system.cpu.memDep0.insertedStores                2382                       # Number of stores inserted to the mem dependence unit.
system.cpu.memDep0.conflictingLoads                15                       # Number of conflicting loads.
system.cpu.memDep0.conflictingStores               37                       # Number of conflicting stores.
system.cpu.iq.iqInstsAdded                      27193                       # Number of instructions added to the IQ (excludes non-spec)
system.cpu.iq.iqNonSpecInstsAdded                  80                       # Number of non-speculative instructions added to the IQ
system.cpu.iq.iqInstsIssued                     23776                       # Number of instructions issued
system.cpu.iq.iqSquashedInstsIssued               485                       # Number of squashed instructions issued
system.cpu.iq.iqSquashedInstsExamined           11658                       # Number of squashed instructions iterated over during squash; mainly for profiling
system.cpu.iq.iqSquashedOperandsExamined        15005                       # Number of squashed operands that are examined and possibly removed from graph
system.cpu.iq.iqSquashedNonSpecRemoved             69                       # Number of squashed non-spec instructions that were removed
system.cpu.iq.issued_per_cycle::samples         65371                       # Number of insts issued each cycle
system.cpu.iq.issued_per_cycle::mean         0.363709                       # Number of insts issued each cycle
system.cpu.iq.issued_per_cycle::stdev        0.715424                       # Number of insts issued each cycle
system.cpu.iq.issued_per_cycle::underflows            0      0.00%      0.00% # Number of insts issued each cycle
system.cpu.iq.issued_per_cycle::0               50760     77.65%     77.65% # Number of insts issued each cycle
system.cpu.iq.issued_per_cycle::1                5446      8.33%     85.98% # Number of insts issued each cycle
system.cpu.iq.issued_per_cycle::2                9165     14.02%    100.00% # Number of insts issued each cycle
system.cpu.iq.issued_per_cycle::overflows            0      0.00%    100.00% # Number of insts issued each cycle
system.cpu.iq.issued_per_cycle::min_value            0                       # Number of insts issued each cycle
system.cpu.iq.issued_per_cycle::max_value            2                       # Number of insts issued each cycle
system.cpu.iq.issued_per_cycle::total           65371                       # Number of insts issued each cycle
system.cpu.iq.fu_full::No_OpClass                   0      0.00%      0.00% # attempts to use FU when none available
system.cpu.iq.fu_full::IntAlu                       0      0.00%      0.00% # attempts to use FU when none available
system.cpu.iq.fu_full::IntMult                      0      0.00%      0.00% # attempts to use FU when none available
system.cpu.iq.fu_full::IntDiv                       0      0.00%      0.00% # attempts to use FU when none available
system.cpu.iq.fu_full::FloatAdd                     0      0.00%      0.00% # attempts to use FU when none available
system.cpu.iq.fu_full::FloatCmp                     0      0.00%      0.00% # attempts to use FU when none available
system.cpu.iq.fu_full::FloatCvt                     0      0.00%      0.00% # attempts to use FU when none available
system.cpu.iq.fu_full::FloatMult                    0      0.00%      0.00% # attempts to use FU when none available
system.cpu.iq.fu_full::FloatMultAcc                 0      0.00%      0.00% # attempts to use FU when none available
system.cpu.iq.fu_full::FloatDiv                     0      0.00%      0.00% # attempts to use FU when none available
system.cpu.iq.fu_full::FloatMisc                    0      0.00%      0.00% # attempts to use FU when none available
system.cpu.iq.fu_full::FloatSqrt                    0      0.00%      0.00% # attempts to use FU when none available
system.cpu.iq.fu_full::SimdAdd                    248     26.00%     26.00% # attempts to use FU when none available
system.cpu.iq.fu_full::SimdAddAcc                   0      0.00%     26.00% # attempts to use FU when none available
system.cpu.iq.fu_full::SimdAlu                     63      6.60%     32.60% # attempts to use FU when none available
system.cpu.iq.fu_full::SimdCmp                      0      0.00%     32.60% # attempts to use FU when none available
system.cpu.iq.fu_full::SimdCvt                     26      2.73%     35.32% # attempts to use FU when none available
system.cpu.iq.fu_full::SimdMisc                   120     12.58%     47.90% # attempts to use FU when none available
system.cpu.iq.fu_full::SimdMult                     0      0.00%     47.90% # attempts to use FU when none available
system.cpu.iq.fu_full::SimdMultAcc                  0      0.00%     47.90% # attempts to use FU when none available
system.cpu.iq.fu_full::SimdShift                  124     13.00%     60.90% # attempts to use FU when none available
system.cpu.iq.fu_full::SimdShiftAcc                 0      0.00%     60.90% # attempts to use FU when none available
system.cpu.iq.fu_full::SimdSqrt                     0      0.00%     60.90% # attempts to use FU when none available
system.cpu.iq.fu_full::SimdFloatAdd                 0      0.00%     60.90% # attempts to use FU when none available
system.cpu.iq.fu_full::SimdFloatAlu                 0      0.00%     60.90% # attempts to use FU when none available
system.cpu.iq.fu_full::SimdFloatCmp                 0      0.00%     60.90% # attempts to use FU when none available
system.cpu.iq.fu_full::SimdFloatCvt                 0      0.00%     60.90% # attempts to use FU when none available
system.cpu.iq.fu_full::SimdFloatDiv                 0      0.00%     60.90% # attempts to use FU when none available
system.cpu.iq.fu_full::SimdFloatMisc                0      0.00%     60.90% # attempts to use FU when none available
system.cpu.iq.fu_full::SimdFloatMult                0      0.00%     60.90% # attempts to use FU when none available
system.cpu.iq.fu_full::SimdFloatMultAcc             0      0.00%     60.90% # attempts to use FU when none available
system.cpu.iq.fu_full::SimdFloatSqrt                0      0.00%     60.90% # attempts to use FU when none available
system.cpu.iq.fu_full::SimdAes                      0      0.00%     60.90% # attempts to use FU when none available
system.cpu.iq.fu_full::SimdAesMix                   0      0.00%     60.90% # attempts to use FU when none available
system.cpu.iq.fu_full::SimdSha1Hash                 0      0.00%     60.90% # attempts to use FU when none available
system.cpu.iq.fu_full::SimdSha1Hash2                0      0.00%     60.90% # attempts to use FU when none available
system.cpu.iq.fu_full::SimdSha256Hash               0      0.00%     60.90% # attempts to use FU when none available
system.cpu.iq.fu_full::SimdSha256Hash2              0      0.00%     60.90% # attempts to use FU when none available
system.cpu.iq.fu_full::SimdShaSigma2                0      0.00%     60.90% # attempts to use FU when none available
system.cpu.iq.fu_full::SimdShaSigma3                0      0.00%     60.90% # attempts to use FU when none available
system.cpu.iq.fu_full::MemRead                    235     24.63%     85.53% # attempts to use FU when none available
system.cpu.iq.fu_full::MemWrite                   138     14.47%    100.00% # attempts to use FU when none available
system.cpu.iq.fu_full::FloatMemRead                 0      0.00%    100.00% # attempts to use FU when none available
system.cpu.iq.fu_full::FloatMemWrite                0      0.00%    100.00% # attempts to use FU when none available
system.cpu.iq.fu_full::IprAccess                    0      0.00%    100.00% # attempts to use FU when none available
system.cpu.iq.fu_full::InstPrefetch                 0      0.00%    100.00% # attempts to use FU when none available
system.cpu.iq.FU_type_0::No_OpClass               338      1.42%      1.42% # Type of FU issued
system.cpu.iq.FU_type_0::IntAlu                 17977     75.61%     77.03% # Type of FU issued
system.cpu.iq.FU_type_0::IntMult                    4      0.02%     77.05% # Type of FU issued
system.cpu.iq.FU_type_0::IntDiv                    31      0.13%     77.18% # Type of FU issued
system.cpu.iq.FU_type_0::FloatAdd                  13      0.05%     77.23% # Type of FU issued
system.cpu.iq.FU_type_0::FloatCmp                   0      0.00%     77.23% # Type of FU issued
system.cpu.iq.FU_type_0::FloatCvt                   0      0.00%     77.23% # Type of FU issued
system.cpu.iq.FU_type_0::FloatMult                  0      0.00%     77.23% # Type of FU issued
system.cpu.iq.FU_type_0::FloatMultAcc               0      0.00%     77.23% # Type of FU issued
system.cpu.iq.FU_type_0::FloatDiv                   0      0.00%     77.23% # Type of FU issued
system.cpu.iq.FU_type_0::FloatMisc                  0      0.00%     77.23% # Type of FU issued
system.cpu.iq.FU_type_0::FloatSqrt                  0      0.00%     77.23% # Type of FU issued
system.cpu.iq.FU_type_0::SimdAdd                  375      1.58%     78.81% # Type of FU issued
system.cpu.iq.FU_type_0::SimdAddAcc                 0      0.00%     78.81% # Type of FU issued
system.cpu.iq.FU_type_0::SimdAlu                   92      0.39%     79.20% # Type of FU issued
system.cpu.iq.FU_type_0::SimdCmp                    0      0.00%     79.20% # Type of FU issued
system.cpu.iq.FU_type_0::SimdCvt                  130      0.55%     79.74% # Type of FU issued
system.cpu.iq.FU_type_0::SimdMisc                 241      1.01%     80.76% # Type of FU issued
system.cpu.iq.FU_type_0::SimdMult                   0      0.00%     80.76% # Type of FU issued
system.cpu.iq.FU_type_0::SimdMultAcc                0      0.00%     80.76% # Type of FU issued
system.cpu.iq.FU_type_0::SimdShift                186      0.78%     81.54% # Type of FU issued
system.cpu.iq.FU_type_0::SimdShiftAcc               0      0.00%     81.54% # Type of FU issued
system.cpu.iq.FU_type_0::SimdSqrt                   0      0.00%     81.54% # Type of FU issued
system.cpu.iq.FU_type_0::SimdFloatAdd               0      0.00%     81.54% # Type of FU issued
system.cpu.iq.FU_type_0::SimdFloatAlu               0      0.00%     81.54% # Type of FU issued
system.cpu.iq.FU_type_0::SimdFloatCmp               0      0.00%     81.54% # Type of FU issued
system.cpu.iq.FU_type_0::SimdFloatCvt               0      0.00%     81.54% # Type of FU issued
system.cpu.iq.FU_type_0::SimdFloatDiv               0      0.00%     81.54% # Type of FU issued
system.cpu.iq.FU_type_0::SimdFloatMisc              0      0.00%     81.54% # Type of FU issued
system.cpu.iq.FU_type_0::SimdFloatMult              0      0.00%     81.54% # Type of FU issued
system.cpu.iq.FU_type_0::SimdFloatMultAcc            0      0.00%     81.54% # Type of FU issued
system.cpu.iq.FU_type_0::SimdFloatSqrt              0      0.00%     81.54% # Type of FU issued
system.cpu.iq.FU_type_0::SimdAes                    0      0.00%     81.54% # Type of FU issued
system.cpu.iq.FU_type_0::SimdAesMix                 0      0.00%     81.54% # Type of FU issued
system.cpu.iq.FU_type_0::SimdSha1Hash               0      0.00%     81.54% # Type of FU issued
system.cpu.iq.FU_type_0::SimdSha1Hash2              0      0.00%     81.54% # Type of FU issued
system.cpu.iq.FU_type_0::SimdSha256Hash             0      0.00%     81.54% # Type of FU issued
system.cpu.iq.FU_type_0::SimdSha256Hash2            0      0.00%     81.54% # Type of FU issued
system.cpu.iq.FU_type_0::SimdShaSigma2              0      0.00%     81.54% # Type of FU issued
system.cpu.iq.FU_type_0::SimdShaSigma3              0      0.00%     81.54% # Type of FU issued
system.cpu.iq.FU_type_0::MemRead                 2331      9.80%     91.34% # Type of FU issued
system.cpu.iq.FU_type_0::MemWrite                1531      6.44%     97.78% # Type of FU issued
system.cpu.iq.FU_type_0::FloatMemRead              89      0.37%     98.16% # Type of FU issued
system.cpu.iq.FU_type_0::FloatMemWrite            438      1.84%    100.00% # Type of FU issued
system.cpu.iq.FU_type_0::IprAccess                  0      0.00%    100.00% # Type of FU issued
system.cpu.iq.FU_type_0::InstPrefetch               0      0.00%    100.00% # Type of FU issued
system.cpu.iq.FU_type_0::total                  23776                       # Type of FU issued
system.cpu.iq.rate                           0.260687                       # Inst issue rate
system.cpu.iq.fu_busy_cnt                         954                       # FU busy when requested
system.cpu.iq.fu_busy_rate                   0.040124                       # FU busy rate (busy events/executed inst)
system.cpu.iq.int_inst_queue_reads             109604                       # Number of integer instruction queue reads
system.cpu.iq.int_inst_queue_writes             36770                       # Number of integer instruction queue writes
system.cpu.iq.int_inst_queue_wakeup_accesses        19104                       # Number of integer instruction queue wakeup accesses
system.cpu.iq.fp_inst_queue_reads                4758                       # Number of floating instruction queue reads
system.cpu.iq.fp_inst_queue_writes               2165                       # Number of floating instruction queue writes
system.cpu.iq.fp_inst_queue_wakeup_accesses         2068                       # Number of floating instruction queue wakeup accesses
system.cpu.iq.vec_inst_queue_reads                  0                       # Number of vector instruction queue reads
system.cpu.iq.vec_inst_queue_writes                 0                       # Number of vector instruction queue writes
system.cpu.iq.vec_inst_queue_wakeup_accesses            0                       # Number of vector instruction queue wakeup accesses
system.cpu.iq.int_alu_accesses                  21723                       # Number of integer alu accesses
system.cpu.iq.fp_alu_accesses                    2669                       # Number of floating point alu accesses
system.cpu.iq.vec_alu_accesses                      0                       # Number of vector alu accesses
system.cpu.iew.lsq.thread0.forwLoads               51                       # Number of loads that had data forwarded from stores
system.cpu.iew.lsq.thread0.invAddrLoads             0                       # Number of loads ignored due to an invalid address
system.cpu.iew.lsq.thread0.squashedLoads         1364                       # Number of loads squashed
system.cpu.iew.lsq.thread0.ignoredResponses            2                       # Number of memory responses ignored because the instruction is squashed
system.cpu.iew.lsq.thread0.memOrderViolation            4                       # Number of memory ordering violations
system.cpu.iew.lsq.thread0.squashedStores          847                       # Number of stores squashed
system.cpu.iew.lsq.thread0.invAddrSwpfs             0                       # Number of software prefetches ignored due to an invalid address
system.cpu.iew.lsq.thread0.blockedLoads             0                       # Number of blocked loads due to partial load-store forwarding
system.cpu.iew.lsq.thread0.rescheduledLoads            0                       # Number of loads that were rescheduled
system.cpu.iew.lsq.thread0.cacheBlocked            13                       # Number of times an access to memory failed due to the cache being blocked
system.cpu.iew.iewIdleCycles                        0                       # Number of cycles IEW is idle
system.cpu.iew.iewSquashCycles                    924                       # Number of cycles IEW is squashing
system.cpu.iew.iewBlockCycles                    1502                       # Number of cycles IEW is blocking
system.cpu.iew.iewUnblockCycles                  1312                       # Number of cycles IEW is unblocking
system.cpu.iew.iewDispatchedInsts               27273                       # Number of instructions dispatched to IQ
system.cpu.iew.iewDispSquashedInsts               786                       # Number of squashed instructions skipped by dispatch
system.cpu.iew.iewDispLoadInsts                  2835                       # Number of dispatched load instructions
system.cpu.iew.iewDispStoreInsts                 2382                       # Number of dispatched store instructions
system.cpu.iew.iewDispNonSpecInsts                 38                       # Number of dispatched non-speculative instructions
system.cpu.iew.iewIQFullEvents                     20                       # Number of times the IQ has become full, causing a stall
system.cpu.iew.iewLSQFullEvents                  1279                       # Number of times the LSQ has become full, causing a stall
system.cpu.iew.memOrderViolationEvents              4                       # Number of memory order violations
system.cpu.iew.predictedTakenIncorrect            173                       # Number of branches that were predicted taken incorrectly
system.cpu.iew.predictedNotTakenIncorrect          874                       # Number of branches that were predicted not taken incorrectly
system.cpu.iew.branchMispredicts                 1047                       # Number of branch mispredicts detected at execute
system.cpu.iew.iewExecutedInsts                 21729                       # Number of executed instructions
system.cpu.iew.iewExecLoadInsts                  2172                       # Number of load instructions executed
system.cpu.iew.iewExecSquashedInsts              2047                       # Number of squashed instructions skipped in execute
system.cpu.iew.exec_swp                             0                       # number of swp insts executed
system.cpu.iew.exec_nop                             0                       # number of nop insts executed
system.cpu.iew.exec_refs                         3994                       # number of memory reference insts executed
system.cpu.iew.exec_branches                     1928                       # Number of branches executed
system.cpu.iew.exec_stores                       1822                       # Number of stores executed
system.cpu.iew.exec_rate                     0.238244                       # Inst execution rate
system.cpu.iew.wb_sent                          21469                       # cumulative count of insts sent to commit
system.cpu.iew.wb_count                         21172                       # cumulative count of insts written-back
system.cpu.iew.wb_producers                     14497                       # num instructions producing a value
system.cpu.iew.wb_consumers                     22365                       # num instructions consuming a value
system.cpu.iew.wb_rate                       0.232136                       # insts written-back per cycle
system.cpu.iew.wb_fanout                     0.648200                       # average fanout of values written-back
system.cpu.commit.commitSquashedInsts           10487                       # The number of squashed insts skipped by commit
system.cpu.commit.commitNonSpecStalls              11                       # The number of times commit has been forced to stall to communicate backwards
system.cpu.commit.branchMispredicts               920                       # The number of times a branch was mispredicted
system.cpu.commit.committed_per_cycle::samples        64180                       # Number of insts commited each cycle
system.cpu.commit.committed_per_cycle::mean     0.243285                       # Number of insts commited each cycle
system.cpu.commit.committed_per_cycle::stdev     0.608291                       # Number of insts commited each cycle
system.cpu.commit.committed_per_cycle::underflows            0      0.00%      0.00% # Number of insts commited each cycle
system.cpu.commit.committed_per_cycle::0        54532     84.97%     84.97% # Number of insts commited each cycle
system.cpu.commit.committed_per_cycle::1         3682      5.74%     90.70% # Number of insts commited each cycle
system.cpu.commit.committed_per_cycle::2         5966      9.30%    100.00% # Number of insts commited each cycle
system.cpu.commit.committed_per_cycle::overflows            0      0.00%    100.00% # Number of insts commited each cycle
system.cpu.commit.committed_per_cycle::min_value            0                       # Number of insts commited each cycle
system.cpu.commit.committed_per_cycle::max_value            2                       # Number of insts commited each cycle
system.cpu.commit.committed_per_cycle::total        64180                       # Number of insts commited each cycle
system.cpu.commit.committedInsts                 7739                       # Number of instructions committed
system.cpu.commit.committedOps                  15614                       # Number of ops (including micro ops) committed
system.cpu.commit.swp_count                         0                       # Number of s/w prefetches committed
system.cpu.commit.refs                           3006                       # Number of memory references committed
system.cpu.commit.loads                          1471                       # Number of loads committed
system.cpu.commit.membars                           0                       # Number of memory barriers committed
system.cpu.commit.branches                       1585                       # Number of branches committed
system.cpu.commit.vec_insts                         0                       # Number of committed Vector instructions.
system.cpu.commit.fp_insts                       2049                       # Number of committed floating point instructions.
system.cpu.commit.int_insts                     14016                       # Number of committed integer instructions.
system.cpu.commit.function_calls                  153                       # Number of function calls committed.
system.cpu.commit.op_class_0::No_OpClass          109      0.70%      0.70% # Class of committed instruction
system.cpu.commit.op_class_0::IntAlu            11435     73.24%     73.93% # Class of committed instruction
system.cpu.commit.op_class_0::IntMult               4      0.03%     73.96% # Class of committed instruction
system.cpu.commit.op_class_0::IntDiv               28      0.18%     74.14% # Class of committed instruction
system.cpu.commit.op_class_0::FloatAdd             12      0.08%     74.22% # Class of committed instruction
system.cpu.commit.op_class_0::FloatCmp              0      0.00%     74.22% # Class of committed instruction
system.cpu.commit.op_class_0::FloatCvt              0      0.00%     74.22% # Class of committed instruction
system.cpu.commit.op_class_0::FloatMult             0      0.00%     74.22% # Class of committed instruction
system.cpu.commit.op_class_0::FloatMultAcc            0      0.00%     74.22% # Class of committed instruction
system.cpu.commit.op_class_0::FloatDiv              0      0.00%     74.22% # Class of committed instruction
system.cpu.commit.op_class_0::FloatMisc             0      0.00%     74.22% # Class of committed instruction
system.cpu.commit.op_class_0::FloatSqrt             0      0.00%     74.22% # Class of committed instruction
system.cpu.commit.op_class_0::SimdAdd             374      2.40%     76.61% # Class of committed instruction
system.cpu.commit.op_class_0::SimdAddAcc            0      0.00%     76.61% # Class of committed instruction
system.cpu.commit.op_class_0::SimdAlu              90      0.58%     77.19% # Class of committed instruction
system.cpu.commit.op_class_0::SimdCmp               0      0.00%     77.19% # Class of committed instruction
system.cpu.commit.op_class_0::SimdCvt             130      0.83%     78.02% # Class of committed instruction
system.cpu.commit.op_class_0::SimdMisc            240      1.54%     79.56% # Class of committed instruction
system.cpu.commit.op_class_0::SimdMult              0      0.00%     79.56% # Class of committed instruction
system.cpu.commit.op_class_0::SimdMultAcc            0      0.00%     79.56% # Class of committed instruction
system.cpu.commit.op_class_0::SimdShift           186      1.19%     80.75% # Class of committed instruction
system.cpu.commit.op_class_0::SimdShiftAcc            0      0.00%     80.75% # Class of committed instruction
system.cpu.commit.op_class_0::SimdSqrt              0      0.00%     80.75% # Class of committed instruction
system.cpu.commit.op_class_0::SimdFloatAdd            0      0.00%     80.75% # Class of committed instruction
system.cpu.commit.op_class_0::SimdFloatAlu            0      0.00%     80.75% # Class of committed instruction
system.cpu.commit.op_class_0::SimdFloatCmp            0      0.00%     80.75% # Class of committed instruction
system.cpu.commit.op_class_0::SimdFloatCvt            0      0.00%     80.75% # Class of committed instruction
system.cpu.commit.op_class_0::SimdFloatDiv            0      0.00%     80.75% # Class of committed instruction
system.cpu.commit.op_class_0::SimdFloatMisc            0      0.00%     80.75% # Class of committed instruction
system.cpu.commit.op_class_0::SimdFloatMult            0      0.00%     80.75% # Class of committed instruction
system.cpu.commit.op_class_0::SimdFloatMultAcc            0      0.00%     80.75% # Class of committed instruction
system.cpu.commit.op_class_0::SimdFloatSqrt            0      0.00%     80.75% # Class of committed instruction
system.cpu.commit.op_class_0::SimdAes               0      0.00%     80.75% # Class of committed instruction
system.cpu.commit.op_class_0::SimdAesMix            0      0.00%     80.75% # Class of committed instruction
system.cpu.commit.op_class_0::SimdSha1Hash            0      0.00%     80.75% # Class of committed instruction
system.cpu.commit.op_class_0::SimdSha1Hash2            0      0.00%     80.75% # Class of committed instruction
system.cpu.commit.op_class_0::SimdSha256Hash            0      0.00%     80.75% # Class of committed instruction
system.cpu.commit.op_class_0::SimdSha256Hash2            0      0.00%     80.75% # Class of committed instruction
system.cpu.commit.op_class_0::SimdShaSigma2            0      0.00%     80.75% # Class of committed instruction
system.cpu.commit.op_class_0::SimdShaSigma3            0      0.00%     80.75% # Class of committed instruction
system.cpu.commit.op_class_0::MemRead            1397      8.95%     89.70% # Class of committed instruction
system.cpu.commit.op_class_0::MemWrite           1114      7.13%     96.83% # Class of committed instruction
system.cpu.commit.op_class_0::FloatMemRead           74      0.47%     97.30% # Class of committed instruction
system.cpu.commit.op_class_0::FloatMemWrite          421      2.70%    100.00% # Class of committed instruction
system.cpu.commit.op_class_0::IprAccess             0      0.00%    100.00% # Class of committed instruction
system.cpu.commit.op_class_0::InstPrefetch            0      0.00%    100.00% # Class of committed instruction
system.cpu.commit.op_class_0::total             15614                       # Class of committed instruction
system.cpu.commit.bw_lim_events                  5966                       # number cycles where commit BW limit reached
system.cpu.rob.rob_reads                        84315                       # The number of ROB reads
system.cpu.rob.rob_writes                       53394                       # The number of ROB writes
system.cpu.timesIdled                             311                       # Number of times that the entire CPU went into an idle state and unscheduled itself
system.cpu.idleCycles                           25834                       # Total number of cycles that the CPU has spent unscheduled due to idling
system.cpu.committedInsts                        7739                       # Number of Instructions Simulated
system.cpu.committedOps                         15614                       # Number of Ops (including micro ops) Simulated
system.cpu.cpi                              11.785114                       # CPI: Cycles Per Instruction
system.cpu.cpi_total                        11.785114                       # CPI: Total CPI of All Threads
system.cpu.ipc                               0.084853                       # IPC: Instructions Per Cycle
system.cpu.ipc_total                         0.084853                       # IPC: Total IPC of All Threads
system.cpu.int_regfile_reads                    27534                       # number of integer regfile reads
system.cpu.int_regfile_writes                   15839                       # number of integer regfile writes
system.cpu.fp_regfile_reads                      3962                       # number of floating regfile reads
system.cpu.fp_regfile_writes                     1572                       # number of floating regfile writes
system.cpu.cc_regfile_reads                      9482                       # number of cc regfile reads
system.cpu.cc_regfile_writes                     5606                       # number of cc regfile writes
system.cpu.misc_regfile_reads                    9065                       # number of misc regfile reads
system.cpu.dcache.tags.pwrStateResidencyTicks::UNDEFINED     45602000                       # Cumulative time (in ticks) in various power states
system.cpu.dcache.tags.tagsinuse           146.469839                       # Cycle average of tags in use
system.cpu.dcache.tags.total_refs                3465                       # Total number of references to valid blocks.
system.cpu.dcache.tags.sampled_refs               254                       # Sample count of references to valid blocks.
system.cpu.dcache.tags.avg_refs             13.641732                       # Average number of references to valid blocks.
system.cpu.dcache.tags.warmup_cycle            170000                       # Cycle when the warmup percentage was hit.
system.cpu.dcache.tags.occ_blocks::.cpu.data   146.469839                       # Average occupied blocks per requestor
system.cpu.dcache.tags.occ_percent::.cpu.data     0.286074                       # Average percentage of cache occupancy
system.cpu.dcache.tags.occ_percent::total     0.286074                       # Average percentage of cache occupancy
system.cpu.dcache.tags.occ_task_id_blocks::1024          254                       # Occupied blocks per task id
system.cpu.dcache.tags.age_task_id_blocks_1024::0           34                       # Occupied blocks per task id
system.cpu.dcache.tags.age_task_id_blocks_1024::1          220                       # Occupied blocks per task id
system.cpu.dcache.tags.occ_task_id_percent::1024     0.496094                       # Percentage of cache occupancy per task id
system.cpu.dcache.tags.tag_accesses             28894                       # Number of tag accesses
system.cpu.dcache.tags.data_accesses            28894                       # Number of data accesses
system.cpu.dcache.pwrStateResidencyTicks::UNDEFINED     45602000                       # Cumulative time (in ticks) in various power states
system.cpu.dcache.ReadReq_hits::.cpu.data         1807                       # number of ReadReq hits
system.cpu.dcache.ReadReq_hits::total            1807                       # number of ReadReq hits
system.cpu.dcache.WriteReq_hits::.cpu.data         1404                       # number of WriteReq hits
system.cpu.dcache.WriteReq_hits::total           1404                       # number of WriteReq hits
system.cpu.dcache.demand_hits::.cpu.data         3211                       # number of demand (read+write) hits
system.cpu.dcache.demand_hits::total             3211                       # number of demand (read+write) hits
system.cpu.dcache.overall_hits::.cpu.data         3211                       # number of overall hits
system.cpu.dcache.overall_hits::total            3211                       # number of overall hits
system.cpu.dcache.ReadReq_misses::.cpu.data          238                       # number of ReadReq misses
system.cpu.dcache.ReadReq_misses::total           238                       # number of ReadReq misses
system.cpu.dcache.WriteReq_misses::.cpu.data          131                       # number of WriteReq misses
system.cpu.dcache.WriteReq_misses::total          131                       # number of WriteReq misses
system.cpu.dcache.demand_misses::.cpu.data          369                       # number of demand (read+write) misses
system.cpu.dcache.demand_misses::total            369                       # number of demand (read+write) misses
system.cpu.dcache.overall_misses::.cpu.data          369                       # number of overall misses
system.cpu.dcache.overall_misses::total           369                       # number of overall misses
system.cpu.dcache.ReadReq_miss_latency::.cpu.data     18473500                       # number of ReadReq miss cycles
system.cpu.dcache.ReadReq_miss_latency::total     18473500                       # number of ReadReq miss cycles
system.cpu.dcache.WriteReq_miss_latency::.cpu.data     10597500                       # number of WriteReq miss cycles
system.cpu.dcache.WriteReq_miss_latency::total     10597500                       # number of WriteReq miss cycles
system.cpu.dcache.demand_miss_latency::.cpu.data     29071000                       # number of demand (read+write) miss cycles
system.cpu.dcache.demand_miss_latency::total     29071000                       # number of demand (read+write) miss cycles
system.cpu.dcache.overall_miss_latency::.cpu.data     29071000                       # number of overall miss cycles
system.cpu.dcache.overall_miss_latency::total     29071000                       # number of overall miss cycles
system.cpu.dcache.ReadReq_accesses::.cpu.data         2045                       # number of ReadReq accesses(hits+misses)
system.cpu.dcache.ReadReq_accesses::total         2045                       # number of ReadReq accesses(hits+misses)
system.cpu.dcache.WriteReq_accesses::.cpu.data         1535                       # number of WriteReq accesses(hits+misses)
system.cpu.dcache.WriteReq_accesses::total         1535                       # number of WriteReq accesses(hits+misses)
system.cpu.dcache.demand_accesses::.cpu.data         3580                       # number of demand (read+write) accesses
system.cpu.dcache.demand_accesses::total         3580                       # number of demand (read+write) accesses
system.cpu.dcache.overall_accesses::.cpu.data         3580                       # number of overall (read+write) accesses
system.cpu.dcache.overall_accesses::total         3580                       # number of overall (read+write) accesses
system.cpu.dcache.ReadReq_miss_rate::.cpu.data     0.116381                       # miss rate for ReadReq accesses
system.cpu.dcache.ReadReq_miss_rate::total     0.116381                       # miss rate for ReadReq accesses
system.cpu.dcache.WriteReq_miss_rate::.cpu.data     0.085342                       # miss rate for WriteReq accesses
system.cpu.dcache.WriteReq_miss_rate::total     0.085342                       # miss rate for WriteReq accesses
system.cpu.dcache.demand_miss_rate::.cpu.data     0.103073                       # miss rate for demand accesses
system.cpu.dcache.demand_miss_rate::total     0.103073                       # miss rate for demand accesses
system.cpu.dcache.overall_miss_rate::.cpu.data     0.103073                       # miss rate for overall accesses
system.cpu.dcache.overall_miss_rate::total     0.103073                       # miss rate for overall accesses
system.cpu.dcache.ReadReq_avg_miss_latency::.cpu.data 77619.747899                       # average ReadReq miss latency
system.cpu.dcache.ReadReq_avg_miss_latency::total 77619.747899                       # average ReadReq miss latency
system.cpu.dcache.WriteReq_avg_miss_latency::.cpu.data 80896.946565                       # average WriteReq miss latency
system.cpu.dcache.WriteReq_avg_miss_latency::total 80896.946565                       # average WriteReq miss latency
system.cpu.dcache.demand_avg_miss_latency::.cpu.data 78783.197832                       # average overall miss latency
system.cpu.dcache.demand_avg_miss_latency::total 78783.197832                       # average overall miss latency
[...]
system.l3bus.snoop_fanout::1                        0      0.00%    100.00% # Request fanout histogram
system.l3bus.snoop_fanout::overflows                0      0.00%    100.00% # Request fanout histogram
system.l3bus.snoop_fanout::min_value                0                       # Request fanout histogram
system.l3bus.snoop_fanout::max_value                0                       # Request fanout histogram
system.l3bus.snoop_fanout::total                  760                       # Request fanout histogram
system.l3bus.reqLayer0.occupancy               380000                       # Layer occupancy (ticks)
system.l3bus.reqLayer0.utilization                0.8                       # Layer utilization (%)
system.l3bus.respLayer0.occupancy             1900000                       # Layer occupancy (ticks)
system.l3bus.respLayer0.utilization               4.2                       # Layer utilization (%)
system.l3cache.tags.pwrStateResidencyTicks::UNDEFINED     45602000                       # Cumulative time (in ticks) in various power states
system.l3cache.tags.tagsinuse              388.510139                       # Cycle average of tags in use
system.l3cache.tags.total_refs                    760                       # Total number of references to valid blocks.
system.l3cache.tags.sampled_refs                  760                       # Sample count of references to valid blocks.
system.l3cache.tags.avg_refs                        1                       # Average number of references to valid blocks.
system.l3cache.tags.warmup_cycle                76000                       # Cycle when the warmup percentage was hit.
system.l3cache.tags.occ_blocks::.cpu.inst   242.399528                       # Average occupied blocks per requestor
system.l3cache.tags.occ_blocks::.cpu.data   146.110612                       # Average occupied blocks per requestor
system.l3cache.tags.occ_percent::.cpu.inst     0.007397                       # Average percentage of cache occupancy
system.l3cache.tags.occ_percent::.cpu.data     0.004459                       # Average percentage of cache occupancy
system.l3cache.tags.occ_percent::total       0.011856                       # Average percentage of cache occupancy
system.l3cache.tags.occ_task_id_blocks::1024          760                       # Occupied blocks per task id
system.l3cache.tags.age_task_id_blocks_1024::0          157                       # Occupied blocks per task id
system.l3cache.tags.age_task_id_blocks_1024::1          603                       # Occupied blocks per task id
system.l3cache.tags.occ_task_id_percent::1024     0.023193                       # Percentage of cache occupancy per task id
system.l3cache.tags.tag_accesses                12920                       # Number of tag accesses
system.l3cache.tags.data_accesses               12920                       # Number of data accesses
system.l3cache.pwrStateResidencyTicks::UNDEFINED     45602000                       # Cumulative time (in ticks) in various power states
system.l3cache.ReadExReq_misses::.cpu.data          129                       # number of ReadExReq misses
system.l3cache.ReadExReq_misses::total            129                       # number of ReadExReq misses
system.l3cache.ReadSharedReq_misses::.cpu.inst          508                       # number of ReadSharedReq misses
system.l3cache.ReadSharedReq_misses::.cpu.data          123                       # number of ReadSharedReq misses
system.l3cache.ReadSharedReq_misses::total          631                       # number of ReadSharedReq misses
system.l3cache.demand_misses::.cpu.inst           508                       # number of demand (read+write) misses
system.l3cache.demand_misses::.cpu.data           252                       # number of demand (read+write) misses
system.l3cache.demand_misses::total               760                       # number of demand (read+write) misses
system.l3cache.overall_misses::.cpu.inst          508                       # number of overall misses
system.l3cache.overall_misses::.cpu.data          252                       # number of overall misses
system.l3cache.overall_misses::total              760                       # number of overall misses
system.l3cache.ReadExReq_miss_latency::.cpu.data      8721000                       # number of ReadExReq miss cycles
system.l3cache.ReadExReq_miss_latency::total      8721000                       # number of ReadExReq miss cycles
system.l3cache.ReadSharedReq_miss_latency::.cpu.inst     35493500                       # number of ReadSharedReq miss cycles
system.l3cache.ReadSharedReq_miss_latency::.cpu.data      8904000                       # number of ReadSharedReq miss cycles
system.l3cache.ReadSharedReq_miss_latency::total     44397500                       # number of ReadSharedReq miss cycles
system.l3cache.demand_miss_latency::.cpu.inst     35493500                       # number of demand (read+write) miss cycles
system.l3cache.demand_miss_latency::.cpu.data     17625000                       # number of demand (read+write) miss cycles
system.l3cache.demand_miss_latency::total     53118500                       # number of demand (read+write) miss cycles
system.l3cache.overall_miss_latency::.cpu.inst     35493500                       # number of overall miss cycles
system.l3cache.overall_miss_latency::.cpu.data     17625000                       # number of overall miss cycles
system.l3cache.overall_miss_latency::total     53118500                       # number of overall miss cycles
system.l3cache.ReadExReq_accesses::.cpu.data          129                       # number of ReadExReq accesses(hits+misses)
system.l3cache.ReadExReq_accesses::total          129                       # number of ReadExReq accesses(hits+misses)
system.l3cache.ReadSharedReq_accesses::.cpu.inst          508                       # number of ReadSharedReq accesses(hits+misses)
system.l3cache.ReadSharedReq_accesses::.cpu.data          123                       # number of ReadSharedReq accesses(hits+misses)
system.l3cache.ReadSharedReq_accesses::total          631                       # number of ReadSharedReq accesses(hits+misses)
system.l3cache.demand_accesses::.cpu.inst          508                       # number of demand (read+write) accesses
system.l3cache.demand_accesses::.cpu.data          252                       # number of demand (read+write) accesses
system.l3cache.demand_accesses::total             760                       # number of demand (read+write) accesses
system.l3cache.overall_accesses::.cpu.inst          508                       # number of overall (read+write) accesses
system.l3cache.overall_accesses::.cpu.data          252                       # number of overall (read+write) accesses
system.l3cache.overall_accesses::total            760                       # number of overall (read+write) accesses
system.l3cache.ReadExReq_miss_rate::.cpu.data            1                       # miss rate for ReadExReq accesses
system.l3cache.ReadExReq_miss_rate::total            1                       # miss rate for ReadExReq accesses
system.l3cache.ReadSharedReq_miss_rate::.cpu.inst            1                       # miss rate for ReadSharedReq accesses
system.l3cache.ReadSharedReq_miss_rate::.cpu.data            1                       # miss rate for ReadSharedReq accesses
system.l3cache.ReadSharedReq_miss_rate::total            1                       # miss rate for ReadSharedReq accesses
system.l3cache.demand_miss_rate::.cpu.inst            1                       # miss rate for demand accesses
system.l3cache.demand_miss_rate::.cpu.data            1                       # miss rate for demand accesses
system.l3cache.demand_miss_rate::total              1                       # miss rate for demand accesses
system.l3cache.overall_miss_rate::.cpu.inst            1                       # miss rate for overall accesses
system.l3cache.overall_miss_rate::.cpu.data            1                       # miss rate for overall accesses
system.l3cache.overall_miss_rate::total             1                       # miss rate for overall accesses
system.l3cache.ReadExReq_avg_miss_latency::.cpu.data 67604.651163                       # average ReadExReq miss latency
system.l3cache.ReadExReq_avg_miss_latency::total 67604.651163                       # average ReadExReq miss latency
system.l3cache.ReadSharedReq_avg_miss_latency::.cpu.inst 69869.094488                       # average ReadSharedReq miss latency
system.l3cache.ReadSharedReq_avg_miss_latency::.cpu.data 72390.243902                       # average ReadSharedReq miss latency
system.l3cache.ReadSharedReq_avg_miss_latency::total 70360.538827                       # average ReadSharedReq miss latency
system.l3cache.demand_avg_miss_latency::.cpu.inst 69869.094488                       # average overall miss latency
system.l3cache.demand_avg_miss_latency::.cpu.data 69940.476190                       # average overall miss latency
system.l3cache.demand_avg_miss_latency::total 69892.763158                       # average overall miss latency
system.l3cache.overall_avg_miss_latency::.cpu.inst 69869.094488                       # average overall miss latency
system.l3cache.overall_avg_miss_latency::.cpu.data 69940.476190                       # average overall miss latency
system.l3cache.overall_avg_miss_latency::total 69892.763158                       # average overall miss latency
system.l3cache.blocked_cycles::no_mshrs             0                       # number of cycles access was blocked
system.l3cache.blocked_cycles::no_targets            0                       # number of cycles access was blocked
system.l3cache.blocked::no_mshrs                    0                       # number of cycles access was blocked
system.l3cache.blocked::no_targets                  0                       # number of cycles access was blocked
system.l3cache.avg_blocked_cycles::no_mshrs          nan                       # average number of cycles each access was blocked
system.l3cache.avg_blocked_cycles::no_targets          nan                       # average number of cycles each access was blocked
system.l3cache.ReadExReq_mshr_misses::.cpu.data          129                       # number of ReadExReq MSHR misses
system.l3cache.ReadExReq_mshr_misses::total          129                       # number of ReadExReq MSHR misses
system.l3cache.ReadSharedReq_mshr_misses::.cpu.inst          508                       # number of ReadSharedReq MSHR misses
system.l3cache.ReadSharedReq_mshr_misses::.cpu.data          123                       # number of ReadSharedReq MSHR misses
system.l3cache.ReadSharedReq_mshr_misses::total          631                       # number of ReadSharedReq MSHR misses
system.l3cache.demand_mshr_misses::.cpu.inst          508                       # number of demand (read+write) MSHR misses
system.l3cache.demand_mshr_misses::.cpu.data          252                       # number of demand (read+write) MSHR misses
system.l3cache.demand_mshr_misses::total          760                       # number of demand (read+write) MSHR misses
system.l3cache.overall_mshr_misses::.cpu.inst          508                       # number of overall MSHR misses
system.l3cache.overall_mshr_misses::.cpu.data          252                       # number of overall MSHR misses
system.l3cache.overall_mshr_misses::total          760                       # number of overall MSHR misses
system.l3cache.ReadExReq_mshr_miss_latency::.cpu.data      8463000                       # number of ReadExReq MSHR miss cycles
system.l3cache.ReadExReq_mshr_miss_latency::total      8463000                       # number of ReadExReq MSHR miss cycles
system.l3cache.ReadSharedReq_mshr_miss_latency::.cpu.inst     34477500                       # number of ReadSharedReq MSHR miss cycles
system.l3cache.ReadSharedReq_mshr_miss_latency::.cpu.data      8658000                       # number of ReadSharedReq MSHR miss cycles
system.l3cache.ReadSharedReq_mshr_miss_latency::total     43135500                       # number of ReadSharedReq MSHR miss cycles
system.l3cache.demand_mshr_miss_latency::.cpu.inst     34477500                       # number of demand (read+write) MSHR miss cycles
system.l3cache.demand_mshr_miss_latency::.cpu.data     17121000                       # number of demand (read+write) MSHR miss cycles
system.l3cache.demand_mshr_miss_latency::total     51598500                       # number of demand (read+write) MSHR miss cycles
system.l3cache.overall_mshr_miss_latency::.cpu.inst     34477500                       # number of overall MSHR miss cycles
system.l3cache.overall_mshr_miss_latency::.cpu.data     17121000                       # number of overall MSHR miss cycles
system.l3cache.overall_mshr_miss_latency::total     51598500                       # number of overall MSHR miss cycles
system.l3cache.ReadExReq_mshr_miss_rate::.cpu.data            1                       # mshr miss rate for ReadExReq accesses
system.l3cache.ReadExReq_mshr_miss_rate::total            1                       # mshr miss rate for ReadExReq accesses
system.l3cache.ReadSharedReq_mshr_miss_rate::.cpu.inst            1                       # mshr miss rate for ReadSharedReq accesses
system.l3cache.ReadSharedReq_mshr_miss_rate::.cpu.data            1                       # mshr miss rate for ReadSharedReq accesses
system.l3cache.ReadSharedReq_mshr_miss_rate::total            1                       # mshr miss rate for ReadSharedReq accesses
system.l3cache.demand_mshr_miss_rate::.cpu.inst            1                       # mshr miss rate for demand accesses
system.l3cache.demand_mshr_miss_rate::.cpu.data            1                       # mshr miss rate for demand accesses
system.l3cache.demand_mshr_miss_rate::total            1                       # mshr miss rate for demand accesses
system.l3cache.overall_mshr_miss_rate::.cpu.inst            1                       # mshr miss rate for overall accesses
system.l3cache.overall_mshr_miss_rate::.cpu.data            1                       # mshr miss rate for overall accesses
system.l3cache.overall_mshr_miss_rate::total            1                       # mshr miss rate for overall accesses
system.l3cache.ReadExReq_avg_mshr_miss_latency::.cpu.data 65604.651163                       # average ReadExReq mshr miss latency
system.l3cache.ReadExReq_avg_mshr_miss_latency::total 65604.651163                       # average ReadExReq mshr miss latency
system.l3cache.ReadSharedReq_avg_mshr_miss_latency::.cpu.inst 67869.094488                       # average ReadSharedReq mshr miss latency
system.l3cache.ReadSharedReq_avg_mshr_miss_latency::.cpu.data 70390.243902                       # average ReadSharedReq mshr miss latency
system.l3cache.ReadSharedReq_avg_mshr_miss_latency::total 68360.538827                       # average ReadSharedReq mshr miss latency
system.l3cache.demand_avg_mshr_miss_latency::.cpu.inst 67869.094488                       # average overall mshr miss latency
system.l3cache.demand_avg_mshr_miss_latency::.cpu.data 67940.476190                       # average overall mshr miss latency
system.l3cache.demand_avg_mshr_miss_latency::total 67892.763158                       # average overall mshr miss latency
system.l3cache.overall_avg_mshr_miss_latency::.cpu.inst 67869.094488                       # average overall mshr miss latency
system.l3cache.overall_avg_mshr_miss_latency::.cpu.data 67940.476190                       # average overall mshr miss latency
system.l3cache.overall_avg_mshr_miss_latency::total 67892.763158                       # average overall mshr miss latency
system.l3cache.replacements                         0                       # number of replacements
system.membus.snoop_filter.tot_requests           760                       # Total number of requests made to the snoop filter.
system.membus.snoop_filter.hit_single_requests            0                       # Number of requests hitting in the snoop filter with a single holder of the requested data.
system.membus.snoop_filter.hit_multi_requests            0                       # Number of requests hitting in the snoop filter with multiple (>1) holders of the requested data.
system.membus.snoop_filter.tot_snoops               0                       # Total number of snoops made to the snoop filter.
system.membus.snoop_filter.hit_single_snoops            0                       # Number of snoops hitting in the snoop filter with a single holder of the requested data.
system.membus.snoop_filter.hit_multi_snoops            0                       # Number of snoops hitting in the snoop filter with multiple (>1) holders of the requested data.
system.membus.pwrStateResidencyTicks::UNDEFINED     45602000                       # Cumulative time (in ticks) in various power states
system.membus.trans_dist::ReadResp                631                       # Transaction distribution
system.membus.trans_dist::ReadExReq               129                       # Transaction distribution
system.membus.trans_dist::ReadExResp              129                       # Transaction distribution
system.membus.trans_dist::ReadSharedReq           631                       # Transaction distribution
system.membus.pkt_count_system.l3cache.mem_side::system.mem_ctrl.port         1520                       # Packet count per connected master and slave (bytes)
system.membus.pkt_count_system.l3cache.mem_side::total         1520                       # Packet count per connected master and slave (bytes)
system.membus.pkt_count::total                   1520                       # Packet count per connected master and slave (bytes)
system.membus.pkt_size_system.l3cache.mem_side::system.mem_ctrl.port        48640                       # Cumulative packet size per connected master and slave (bytes)
system.membus.pkt_size_system.l3cache.mem_side::total        48640                       # Cumulative packet size per connected master and slave (bytes)
system.membus.pkt_size::total                   48640                       # Cumulative packet size per connected master and slave (bytes)
system.membus.snoops                                0                       # Total snoops (count)
system.membus.snoopTraffic                          0                       # Total snoop traffic (bytes)
system.membus.snoop_fanout::samples               760                       # Request fanout histogram
system.membus.snoop_fanout::mean                    0                       # Request fanout histogram
system.membus.snoop_fanout::stdev                   0                       # Request fanout histogram
system.membus.snoop_fanout::underflows              0      0.00%      0.00% # Request fanout histogram
system.membus.snoop_fanout::0                     760    100.00%    100.00% # Request fanout histogram
system.membus.snoop_fanout::1                       0      0.00%    100.00% # Request fanout histogram
system.membus.snoop_fanout::overflows               0      0.00%    100.00% # Request fanout histogram
system.membus.snoop_fanout::min_value               0                       # Request fanout histogram
system.membus.snoop_fanout::max_value               0                       # Request fanout histogram
system.membus.snoop_fanout::total                 760                       # Request fanout histogram
system.membus.reqLayer0.occupancy              380000                       # Layer occupancy (ticks)
system.membus.reqLayer0.utilization               0.8                       # Layer utilization (%)
system.membus.respLayer0.occupancy            2064750                       # Layer occupancy (ticks)
system.membus.respLayer0.utilization              4.5                       # Layer utilization (%)

---------- End Simulation Statistics   ----------