
---------- Begin Simulation Statistics ----------
sim_seconds                                  0.033873                       # Number of seconds simulated
sim_ticks                                 33873269500                       # Number of ticks simulated
final_tick                                33873269500                       # Number of ticks from beginning of simulation (restored from checkpoints and never reset)
sim_freq                                 1000000000000                       # Frequency of simulated ticks
host_inst_rate                                 294109                       # Simulator instruction rate (inst/s)
host_op_rate                                   517604                       # Simulator op (including micro ops) rate (op/s)
host_tick_rate                              159332962                       # Simulator tick rate (ticks/s)
host_mem_usage                                 660692                       # Number of bytes of host memory used
host_seconds                                   212.59                       # Real time elapsed on the host
sim_insts                                    62525833                       # Number of instructions simulated
sim_ops                                     110039685                       # Number of ops (including micro ops) simulated
system.clk_domain.voltage_domain.voltage            1                       # Voltage in Volts
system.clk_domain.clock                           500                       # Clock period in ticks
system.mem_ctrl.pwrStateResidencyTicks::UNDEFINED  33873269500                       # Cumulative time (in ticks) in various power states
system.mem_ctrl.bytes_read::.cpu.inst           51264                       # Number of bytes read from this memory
system.mem_ctrl.bytes_read::.cpu.data          561856                       # Number of bytes read from this memory
system.mem_ctrl.bytes_read::total              613120                       # Number of bytes read from this memory
system.mem_ctrl.bytes_inst_read::.cpu.inst        51264                       # Number of instructions bytes read from this memory
system.mem_ctrl.bytes_inst_read::total          51264                       # Number of instructions bytes read from this memory
system.mem_ctrl.num_reads::.cpu.inst              801                       # Number of read requests responded to by this memory
system.mem_ctrl.num_reads::.cpu.data             8779                       # Number of read requests responded to by this memory
system.mem_ctrl.num_reads::total                 9580                       # Number of read requests responded to by this memory
system.mem_ctrl.bw_read::.cpu.inst            1513406                       # Total read bandwidth from this memory (bytes/s)
system.mem_ctrl.bw_read::.cpu.data           16587002                       # Total read bandwidth from this memory (bytes/s)
system.mem_ctrl.bw_read::total               18100408                       # Total read bandwidth from this memory (bytes/s)
system.mem_ctrl.bw_inst_read::.cpu.inst       1513406                       # Instruction read bandwidth from this memory (bytes/s)
system.mem_ctrl.bw_inst_read::total           1513406                       # Instruction read bandwidth from this memory (bytes/s)
system.mem_ctrl.bw_total::.cpu.inst           1513406                       # Total bandwidth to/from this memory (bytes/s)
system.mem_ctrl.bw_total::.cpu.data          16587002                       # Total bandwidth to/from this memory (bytes/s)
system.mem_ctrl.bw_total::total              18100408                       # Total bandwidth to/from this memory (bytes/s)
system.mem_ctrl.avgPriority_.cpu.inst::samples       801.00                       # Average QoS priority value for accepted requests
system.mem_ctrl.avgPriority_.cpu.data::samples      8779.00                       # Average QoS priority value for accepted requests
system.mem_ctrl.priorityMinLatency       0.000000018750                       # per QoS priority minimum request to response latency (s)
system.mem_ctrl.priorityMaxLatency       0.000001099750                       # per QoS priority maximum request to response latency (s)
system.mem_ctrl.numReadWriteTurnArounds             0                       # Number of turnarounds from READ to WRITE
system.mem_ctrl.numWriteReadTurnArounds             0                       # Number of turnarounds from WRITE to READ
system.mem_ctrl.numStayReadState                23587                       # Number of times bus staying in READ state
system.mem_ctrl.numStayWriteState                   0                       # Number of times bus staying in WRITE state
system.mem_ctrl.readReqs                         9580                       # Number of read requests accepted
system.mem_ctrl.writeReqs                           0                       # Number of write requests accepted
system.mem_ctrl.readBursts                       9580                       # Number of DRAM read bursts, including those serviced by the write queue
system.mem_ctrl.writeBursts                         0                       # Number of DRAM write bursts, including those merged in the write queue
system.mem_ctrl.bytesReadDRAM                  613120                       # Total number of bytes read from DRAM
system.mem_ctrl.bytesReadWrQ                        0                       # Total number of bytes read from write queue
system.mem_ctrl.bytesWritten                        0                       # Total number of bytes written to DRAM
system.mem_ctrl.bytesReadSys                   613120                       # Total read bytes from the system interface side
system.mem_ctrl.bytesWrittenSys                     0                       # Total written bytes from the system interface side
system.mem_ctrl.servicedByWrQ                       0                       # Number of DRAM read bursts serviced by the write queue
system.mem_ctrl.mergedWrBursts                      0                       # Number of DRAM write bursts merged with an existing one
system.mem_ctrl.neitherReadNorWriteReqs             0                       # Number of requests that are neither read nor write
system.mem_ctrl.perBankRdBursts::0                787                       # Per bank write bursts
system.mem_ctrl.perBankRdBursts::1                623                       # Per bank write bursts
system.mem_ctrl.perBankRdBursts::2                552                       # Per bank write bursts
system.mem_ctrl.perBankRdBursts::3                528                       # Per bank write bursts
system.mem_ctrl.perBankRdBursts::4                542                       # Per bank write bursts
system.mem_ctrl.perBankRdBursts::5                526                       # Per bank write bursts
system.mem_ctrl.perBankRdBursts::6                588                       # Per bank write bursts
system.mem_ctrl.perBankRdBursts::7                618                       # Per bank write bursts
system.mem_ctrl.perBankRdBursts::8                541                       # Per bank write bursts
system.mem_ctrl.perBankRdBursts::9                568                       # Per bank write bursts
system.mem_ctrl.perBankRdBursts::10               657                       # Per bank write bursts
system.mem_ctrl.perBankRdBursts::11               615                       # Per bank write bursts
system.mem_ctrl.perBankRdBursts::12               572                       # Per bank write bursts
system.mem_ctrl.perBankRdBursts::13               581                       # Per bank write bursts
system.mem_ctrl.perBankRdBursts::14               627                       # Per bank write bursts
system.mem_ctrl.perBankRdBursts::15               655                       # Per bank write bursts
system.mem_ctrl.perBankWrBursts::0                  0                       # Per bank write bursts
system.mem_ctrl.perBankWrBursts::1                  0                       # Per bank write bursts
system.mem_ctrl.perBankWrBursts::2                  0                       # Per bank write bursts
system.mem_ctrl.perBankWrBursts::3                  0                       # Per bank write bursts
system.mem_ctrl.perBankWrBursts::4                  0                       # Per bank write bursts
system.mem_ctrl.perBankWrBursts::5                  0                       # Per bank write bursts
system.mem_ctrl.perBankWrBursts::6                  0                       # Per bank write bursts
system.mem_ctrl.perBankWrBursts::7                  0                       # Per bank write bursts
system.mem_ctrl.perBankWrBursts::8                  0                       # Per bank write bursts
system.mem_ctrl.perBankWrBursts::9                  0                       # Per bank write bursts
system.mem_ctrl.perBankWrBursts::10                 0                       # Per bank write bursts
system.mem_ctrl.perBankWrBursts::11                 0                       # Per bank write bursts
system.mem_ctrl.perBankWrBursts::12                 0                       # Per bank write bursts
system.mem_ctrl.perBankWrBursts::13                 0                       # Per bank write bursts
system.mem_ctrl.perBankWrBursts::14                 0                       # Per bank write bursts
system.mem_ctrl.perBankWrBursts::15                 0                       # Per bank write bursts
system.mem_ctrl.numRdRetry                          0                       # Number of times read queue was full causing retry
system.mem_ctrl.numWrRetry                          0                       # Number of times write queue was full causing retry
system.mem_ctrl.totGap                    33873185500                       # Total gap between requests
system.mem_ctrl.readPktSize::0                      0                       # Read request sizes (log2)
system.mem_ctrl.readPktSize::1                      0                       # Read request sizes (log2)
system.mem_ctrl.readPktSize::2                      0                       # Read request sizes (log2)
system.mem_ctrl.readPktSize::3                      0                       # Read request sizes (log2)
system.mem_ctrl.readPktSize::4                      0                       # Read request sizes (log2)
system.mem_ctrl.readPktSize::5                      0                       # Read request sizes (log2)
system.mem_ctrl.readPktSize::6                   9580                       # Read request sizes (log2)
system.mem_ctrl.writePktSize::0                     0                       # Write request sizes (log2)
system.mem_ctrl.writePktSize::1                     0                       # Write request sizes (log2)
system.mem_ctrl.writePktSize::2                     0                       # Write request sizes (log2)
system.mem_ctrl.writePktSize::3                     0                       # Write request sizes (log2)
system.mem_ctrl.writePktSize::4                     0                       # Write request sizes (log2)
system.mem_ctrl.writePktSize::5                     0                       # Write request sizes (log2)
system.mem_ctrl.writePktSize::6                     0                       # Write request sizes (log2)
system.mem_ctrl.rdQLenPdf::0                     9157                       # What read queue length does an incoming req see
system.mem_ctrl.rdQLenPdf::1                      323                       # What read queue length does an incoming req see
system.mem_ctrl.rdQLenPdf::2                       74                       # What read queue length does an incoming req see
system.mem_ctrl.rdQLenPdf::3                       21                       # What read queue length does an incoming req see
system.mem_ctrl.rdQLenPdf::4                        5                       # What read queue length does an incoming req see
system.mem_ctrl.rdQLenPdf::5                        0                       # What read queue length does an incoming req see
system.mem_ctrl.rdQLenPdf::6                        0                       # What read queue length does an incoming req see
system.mem_ctrl.rdQLenPdf::7                        0                       # What read queue length does an incoming req see
system.mem_ctrl.rdQLenPdf::8                        0                       # What read queue length does an incoming req see
system.mem_ctrl.rdQLenPdf::9                        0                       # What read queue length does an incoming req see
system.mem_ctrl.rdQLenPdf::10                       0                       # What read queue length does an incoming req see
system.mem_ctrl.rdQLenPdf::11                       0                       # What read queue length does an incoming req see
system.mem_ctrl.rdQLenPdf::12                       0                       # What read queue length does an incoming req see
system.mem_ctrl.rdQLenPdf::13                       0                       # What read queue length does an incoming req see
system.mem_ctrl.rdQLenPdf::14                       0                       # What read queue length does an incoming req see
system.mem_ctrl.rdQLenPdf::15                       0                       # What read queue length does an incoming req see
system.mem_ctrl.rdQLenPdf::16                       0                       # What read queue length does an incoming req see
system.mem_ctrl.rdQLenPdf::17                       0                       # What read queue length does an incoming req see
system.mem_ctrl.rdQLenPdf::18                       0                       # What read queue length does an incoming req see
system.mem_ctrl.rdQLenPdf::19                       0                       # What read queue length does an incoming req see
system.mem_ctrl.rdQLenPdf::20                       0                       # What read queue length does an incoming req see
system.mem_ctrl.rdQLenPdf::21                       0                       # What read queue length does an incoming req see
system.mem_ctrl.rdQLenPdf::22                       0                       # What read queue length does an incoming req see
system.mem_ctrl.rdQLenPdf::23                       0                       # What read queue length does an incoming req see
system.mem_ctrl.rdQLenPdf::24                       0                       # What read queue length does an incoming req see
system.mem_ctrl.rdQLenPdf::25                       0                       # What read queue length does an incoming req see
system.mem_ctrl.rdQLenPdf::26                       0                       # What read queue length does an incoming req see
system.mem_ctrl.rdQLenPdf::27                       0                       # What read queue length does an incoming req see
system.mem_ctrl.rdQLenPdf::28                       0                       # What read queue length does an incoming req see
system.mem_ctrl.rdQLenPdf::29                       0                       # What read queue length does an incoming req see
system.mem_ctrl.rdQLenPdf::30                       0                       # What read queue length does an incoming req see
system.mem_ctrl.rdQLenPdf::31                       0                       # What read queue length does an incoming req see
system.mem_ctrl.wrQLenPdf::0                        0                       # What write queue length does an incoming req see
system.mem_ctrl.wrQLenPdf::1                        0                       # What write queue length does an incoming req see
system.mem_ctrl.wrQLenPdf::2                        0                       # What write queue length does an incoming req see
system.mem_ctrl.wrQLenPdf::3                        0                       # What write queue length does an incoming req see
system.mem_ctrl.wrQLenPdf::4                        0                       # What write queue length does an incoming req see
system.mem_ctrl.wrQLenPdf::5                        0                       # What write queue length does an incoming req see
system.mem_ctrl.wrQLenPdf::6                        0                       # What write queue length does an incoming req see
system.mem_ctrl.wrQLenPdf::7                        0                       # What write queue length does an incoming req see
system.mem_ctrl.wrQLenPdf::8                        0                       # What write queue length does an incoming req see
system.mem_ctrl.wrQLenPdf::9                        0                       # What write queue length does an incoming req see
system.mem_ctrl.wrQLenPdf::10                       0                       # What write queue length does an incoming req see
system.mem_ctrl.wrQLenPdf::11                       0                       # What write queue length does an incoming req see
system.mem_ctrl.wrQLenPdf::12                       0                       # What write queue length does an incoming req see
system.mem_ctrl.wrQLenPdf::13                       0                       # What write queue length does an incoming req see
system.mem_ctrl.wrQLenPdf::14                       0                       # What write queue length does an incoming req see
system.mem_ctrl.wrQLenPdf::15                       0                       # What write queue length does an incoming req see
system.mem_ctrl.wrQLenPdf::16                       0                       # What write queue length does an incoming req see
system.mem_ctrl.wrQLenPdf::17                       0                       # What write queue length does an incoming req see
system.mem_ctrl.wrQLenPdf::18                       0                       # What write queue length does an incoming req see
system.mem_ctrl.wrQLenPdf::19                       0                       # What write queue length does an incoming req see
system.mem_ctrl.wrQLenPdf::20                       0                       # What write queue length does an incoming req see
system.mem_ctrl.wrQLenPdf::21                       0                       # What write queue length does an incoming req see
system.mem_ctrl.wrQLenPdf::22                       0                       # What write queue length does an incoming req see
system.mem_ctrl.wrQLenPdf::23                       0                       # What write queue length does an incoming req see
system.mem_ctrl.wrQLenPdf::24                       0                       # What write queue length does an incoming req see
system.mem_ctrl.wrQLenPdf::25                       0                       # What write queue length does an incoming req see
system.mem_ctrl.wrQLenPdf::26                       0                       # What write queue length does an incoming req see
system.mem_ctrl.wrQLenPdf::27                       0                       # What write queue length does an incoming req see
system.mem_ctrl.wrQLenPdf::28                       0                       # What write queue length does an incoming req see
system.mem_ctrl.wrQLenPdf::29                       0                       # What write queue length does an incoming req see
system.mem_ctrl.wrQLenPdf::30                       0                       # What write queue length does an incoming req see
system.mem_ctrl.wrQLenPdf::31                       0                       # What write queue length does an incoming req see
system.mem_ctrl.wrQLenPdf::32                       0                       # What write queue length does an incoming req see
system.mem_ctrl.wrQLenPdf::33                       0                       # What write queue length does an incoming req see
system.mem_ctrl.wrQLenPdf::34                       0                       # What write queue length does an incoming req see
system.mem_ctrl.wrQLenPdf::35                       0                       # What write queue length does an incoming req see
system.mem_ctrl.wrQLenPdf::36                       0                       # What write queue length does an incoming req see
system.mem_ctrl.wrQLenPdf::37                       0                       # What write queue length does an incoming req see
system.mem_ctrl.wrQLenPdf::38                       0                       # What write queue length does an incoming req see
system.mem_ctrl.wrQLenPdf::39                       0                       # What write queue length does an incoming req see
system.mem_ctrl.wrQLenPdf::40                       0                       # What write queue length does an incoming req see
system.mem_ctrl.wrQLenPdf::41                       0                       # What write queue length does an incoming req see
system.mem_ctrl.wrQLenPdf::42                       0                       # What write queue length does an incoming req see
system.mem_ctrl.wrQLenPdf::43                       0                       # What write queue length does an incoming req see
system.mem_ctrl.wrQLenPdf::44                       0                       # What write queue length does an incoming req see
system.mem_ctrl.wrQLenPdf::45                       0                       # What write queue length does an incoming req see
system.mem_ctrl.wrQLenPdf::46                       0                       # What write queue length does an incoming req see
system.mem_ctrl.wrQLenPdf::47                       0                       # What write queue length does an incoming req see
system.mem_ctrl.wrQLenPdf::48                       0                       # What write queue length does an incoming req see
system.mem_ctrl.wrQLenPdf::49                       0                       # What write queue length does an incoming req see
system.mem_ctrl.wrQLenPdf::50                       0                       # What write queue length does an incoming req see
system.mem_ctrl.wrQLenPdf::51                       0                       # What write queue length does an incoming req see
system.mem_ctrl.wrQLenPdf::52                       0                       # What write queue length does an incoming req see
system.mem_ctrl.wrQLenPdf::53                       0                       # What write queue length does an incoming req see
system.mem_ctrl.wrQLenPdf::54                       0                       # What write queue length does an incoming req see
system.mem_ctrl.wrQLenPdf::55                       0                       # What write queue length does an incoming req see
system.mem_ctrl.wrQLenPdf::56                       0                       # What write queue length does an incoming req see
system.mem_ctrl.wrQLenPdf::57                       0                       # What write queue length does an incoming req see
system.mem_ctrl.wrQLenPdf::58                       0                       # What write queue length does an incoming req see
system.mem_ctrl.wrQLenPdf::59                       0                       # What write queue length does an incoming req see
system.mem_ctrl.wrQLenPdf::60                       0                       # What write queue length does an incoming req see
system.mem_ctrl.wrQLenPdf::61                       0                       # What write queue length does an incoming req see
system.mem_ctrl.wrQLenPdf::62                       0                       # What write queue length does an incoming req see
system.mem_ctrl.wrQLenPdf::63                       0                       # What write queue length does an incoming req see
system.mem_ctrl.bytesPerActivate::samples         4797                       # Bytes accessed per row activation
system.mem_ctrl.bytesPerActivate::mean     127.386283                       # Bytes accessed per row activation
system.mem_ctrl.bytesPerActivate::gmean    114.482392                       # Bytes accessed per row activation
system.mem_ctrl.bytesPerActivate::stdev     89.806596                       # Bytes accessed per row activation
system.mem_ctrl.bytesPerActivate::0-127          1111     23.16%     23.16% # Bytes accessed per row activation
system.mem_ctrl.bytesPerActivate::128-255         3518     73.34%     96.50% # Bytes accessed per row activation
system.mem_ctrl.bytesPerActivate::256-383           39      0.81%     97.31% # Bytes accessed per row activation
system.mem_ctrl.bytesPerActivate::384-511           32      0.67%     97.98% # Bytes accessed per row activation
system.mem_ctrl.bytesPerActivate::512-639           60      1.25%     99.23% # Bytes accessed per row activation
system.mem_ctrl.bytesPerActivate::640-767           13      0.27%     99.50% # Bytes accessed per row activation
system.mem_ctrl.bytesPerActivate::768-895            5      0.10%     99.60% # Bytes accessed per row activation
system.mem_ctrl.bytesPerActivate::896-1023            3      0.06%     99.67% # Bytes accessed per row activation
system.mem_ctrl.bytesPerActivate::1024-1151           16      0.33%    100.00% # Bytes accessed per row activation
system.mem_ctrl.bytesPerActivate::total          4797                       # Bytes accessed per row activation
system.mem_ctrl.masterReadBytes::.cpu.inst        51264                       # Per-master bytes read from memory
system.mem_ctrl.masterReadBytes::.cpu.data       561856                       # Per-master bytes read from memory
system.mem_ctrl.masterReadRate::.cpu.inst 1513405.725420157658                       # Per-master bytes read from memory rate (Bytes/sec)
system.mem_ctrl.masterReadRate::.cpu.data 16587002.326421428472                       # Per-master bytes read from memory rate (Bytes/sec)
system.mem_ctrl.masterReadAccesses::.cpu.inst          801                       # Per-master read serviced memory accesses
system.mem_ctrl.masterReadAccesses::.cpu.data         8779                       # Per-master read serviced memory accesses
system.mem_ctrl.masterReadTotalLat::.cpu.inst     29179500                       # Per-master read total memory access latency
system.mem_ctrl.masterReadTotalLat::.cpu.data    347277750                       # Per-master read total memory access latency
system.mem_ctrl.masterReadAvgLat::.cpu.inst     36428.84                       # Per-master read average memory access latency
system.mem_ctrl.masterReadAvgLat::.cpu.data     39557.78                       # Per-master read average memory access latency
system.mem_ctrl.totQLat                     196832250                       # Total ticks spent queuing
system.mem_ctrl.totMemAccLat                376457250                       # Total ticks spent from burst creation until serviced by the DRAM
system.mem_ctrl.totBusLat                    47900000                       # Total ticks spent in databus transfers
system.mem_ctrl.avgQLat                      20546.16                       # Average queueing delay per DRAM burst
system.mem_ctrl.avgBusLat                     5000.00                       # Average bus latency per DRAM burst
system.mem_ctrl.avgMemAccLat                 39296.16                       # Average memory access latency per DRAM burst
system.mem_ctrl.avgRdBW                         18.10                       # Average DRAM read bandwidth in MiByte/s
system.mem_ctrl.avgWrBW                          0.00                       # Average achieved write bandwidth in MiByte/s
system.mem_ctrl.avgRdBWSys                      18.10                       # Average system read bandwidth in MiByte/s
system.mem_ctrl.avgWrBWSys                       0.00                       # Average system write bandwidth in MiByte/s
system.mem_ctrl.peakBW                       12800.00                       # Theoretical peak bandwidth in MiByte/s
system.mem_ctrl.busUtil                          0.14                       # Data bus utilization in percentage
system.mem_ctrl.busUtilRead                      0.14                       # Data bus utilization in percentage for reads
system.mem_ctrl.busUtilWrite                     0.00                       # Data bus utilization in percentage for writes
system.mem_ctrl.avgRdQLen                        1.00                       # Average read queue length when enqueuing
system.mem_ctrl.avgWrQLen                        0.00                       # Average write queue length when enqueuing
system.mem_ctrl.readRowHits                      4773                       # Number of row buffer hits during reads
system.mem_ctrl.writeRowHits                        0                       # Number of row buffer hits during writes
system.mem_ctrl.readRowHitRate                  49.82                       # Row buffer hit rate for reads
system.mem_ctrl.writeRowHitRate                   nan                       # Row buffer hit rate for writes
system.mem_ctrl.avgGap                     3535823.12                       # Average gap between requests
system.mem_ctrl.pageHitRate                     49.82                       # Row buffer hit rate, read and write combined
system.mem_ctrl_0.actEnergy                  17150280                       # Energy for activate commands per rank (pJ)
system.mem_ctrl_0.preEnergy                   9092820                       # Energy for precharge commands per rank (pJ)
system.mem_ctrl_0.readEnergy                 34014960                       # Energy for read commands per rank (pJ)
system.mem_ctrl_0.writeEnergy                       0                       # Energy for write commands per rank (pJ)
system.mem_ctrl_0.refreshEnergy          1362656880.000000                       # Energy for refresh commands per rank (pJ)
system.mem_ctrl_0.actBackEnergy             317234640                       # Energy for active background per rank (pJ)
system.mem_ctrl_0.preBackEnergy              30567840                       # Energy for precharge background per rank (pJ)
system.mem_ctrl_0.actPowerDownEnergy       5543918610                       # Energy for active power-down per rank (pJ)
system.mem_ctrl_0.prePowerDownEnergy       1666195680                       # Energy for precharge power-down per rank (pJ)
system.mem_ctrl_0.selfRefreshEnergy        3995334900                       # Energy for self refresh per rank (pJ)
system.mem_ctrl_0.totalEnergy             12976166610                       # Total energy per rank (pJ)
system.mem_ctrl_0.averagePower             383.079839                       # Core power per rank (mW)
system.mem_ctrl_0.totalIdleTime           33097925000                       # Total Idle time Per DRAM Rank
system.mem_ctrl_0.memoryStateTime::IDLE      18714500                       # Time in different power states
system.mem_ctrl_0.memoryStateTime::REF      576420000                       # Time in different power states
system.mem_ctrl_0.memoryStateTime::SREF   16601209250                       # Time in different power states
system.mem_ctrl_0.memoryStateTime::PRE_PDN   4339147750                       # Time in different power states
system.mem_ctrl_0.memoryStateTime::ACT      180169250                       # Time in different power states
system.mem_ctrl_0.memoryStateTime::ACT_PDN  12157608750                       # Time in different power states
system.mem_ctrl_1.actEnergy                  17171700                       # Energy for activate commands per rank (pJ)
system.mem_ctrl_1.preEnergy                   9111795                       # Energy for precharge commands per rank (pJ)
system.mem_ctrl_1.readEnergy                 34386240                       # Energy for read commands per rank (pJ)
system.mem_ctrl_1.writeEnergy                       0                       # Energy for write commands per rank (pJ)
system.mem_ctrl_1.refreshEnergy          1382325360.000000                       # Energy for refresh commands per rank (pJ)
system.mem_ctrl_1.actBackEnergy             320947050                       # Energy for active background per rank (pJ)
system.mem_ctrl_1.preBackEnergy              31891680                       # Energy for precharge background per rank (pJ)
system.mem_ctrl_1.actPowerDownEnergy       5514829230                       # Energy for active power-down per rank (pJ)
system.mem_ctrl_1.prePowerDownEnergy       1782996480                       # Energy for precharge power-down per rank (pJ)
system.mem_ctrl_1.selfRefreshEnergy        3941490180                       # Energy for self refresh per rank (pJ)
system.mem_ctrl_1.totalEnergy             13035421215                       # Total energy per rank (pJ)
system.mem_ctrl_1.averagePower             384.829141                       # Core power per rank (mW)
system.mem_ctrl_1.totalIdleTime           33085652500                       # Total Idle time Per DRAM Rank
system.mem_ctrl_1.memoryStateTime::IDLE      22222000                       # Time in different power states
system.mem_ctrl_1.memoryStateTime::REF      584740000                       # Time in different power states
system.mem_ctrl_1.memoryStateTime::SREF   16348642750                       # Time in different power states
system.mem_ctrl_1.memoryStateTime::PRE_PDN   4643186750                       # Time in different power states
system.mem_ctrl_1.memoryStateTime::ACT      180451250                       # Time in different power states
system.mem_ctrl_1.memoryStateTime::ACT_PDN  12094026750                       # Time in different power states
system.pwrStateResidencyTicks::UNDEFINED  33873269500                       # Cumulative time (in ticks) in various power states
system.cpu.branchPred.lookups                13508093                       # Number of BP lookups
system.cpu.branchPred.condPredicted          13508093                       # Number of conditional branches predicted
system.cpu.branchPred.condIncorrect            363878                       # Number of conditional branches incorrect
system.cpu.branchPred.BTBLookups             12307300                       # Number of BTB lookups
system.cpu.branchPred.BTBHits                       0                       # Number of BTB hits
system.cpu.branchPred.BTBCorrect                    0                       # Number of correct BTB predictions (this stat may not work properly.
system.cpu.branchPred.BTBHitPct              0.000000                       # BTB Hit Percentage
system.cpu.branchPred.usedRAS                  417468                       # Number of times the RAS was used to get a target.
system.cpu.branchPred.RASInCorrect                272                       # Number of incorrect RAS predictions.
system.cpu.branchPred.indirectLookups        12307300                       # Number of indirect predictor lookups.
system.cpu.branchPred.indirectHits            5837461                       # Number of indirect target hits.
system.cpu.branchPred.indirectMisses          6469839                       # Number of indirect misses.
system.cpu.branchPredindirectMispredicted       362900                       # Number of mispredicted indirect branches.
system.cpu.dtb.walker.pwrStateResidencyTicks::UNDEFINED  33873269500                       # Cumulative time (in ticks) in various power states
system.cpu.dtb.rdAccesses                    20308768                       # TLB accesses on read requests
system.cpu.dtb.wrAccesses                     9078879                       # TLB accesses on write requests
system.cpu.dtb.rdMisses                           444                       # TLB misses on read requests
system.cpu.dtb.wrMisses                           313                       # TLB misses on write requests
system.cpu.apic_clk_domain.clock                 8000                       # Clock period in ticks
system.cpu.interrupts.pwrStateResidencyTicks::UNDEFINED  33873269500                       # Cumulative time (in ticks) in various power states
system.cpu.itb.walker.pwrStateResidencyTicks::UNDEFINED  33873269500                       # Cumulative time (in ticks) in various power states
system.cpu.itb.rdAccesses                           0                       # TLB accesses on read requests
system.cpu.itb.wrAccesses                    10074221                       # TLB accesses on write requests
system.cpu.itb.rdMisses                             0                       # TLB misses on read requests
system.cpu.itb.wrMisses                           203                       # TLB misses on write requests
system.cpu.workload.numSyscalls                    36                       # Number of system calls
system.cpu.pwrStateResidencyTicks::ON     33873269500                       # Cumulative time (in ticks) in various power states
system.cpu.numCycles                         67746540                       # number of cpu cycles simulated
system.cpu.numWorkItemsStarted                      0                       # number of work items this cpu started
system.cpu.numWorkItemsCompleted                    0                       # number of work items this cpu completed
system.cpu.fetch.icacheStallCycles             410563                       # Number of cycles fetch is stalled on an Icache miss
system.cpu.fetch.Insts                       77138883                       # Number of instructions fetch has processed
system.cpu.fetch.Branches                    13508093                       # Number of branches that fetch encountered
system.cpu.fetch.predictedBranches            6254929                       # Number of branches that fetch has predicted taken
system.cpu.fetch.Cycles                      66934300                       # Number of cycles fetch has run and was not squashing or blocked
system.cpu.fetch.SquashCycles                  728768                       # Number of cycles fetch has spent squashing
system.cpu.fetch.MiscStallCycles                  120                       # Number of cycles fetch has spent waiting on interrupts, or bad addresses, or out of MSHRs
system.cpu.fetch.PendingTrapStallCycles          1468                       # Number of stall cycles due to pending traps
system.cpu.fetch.PendingQuiesceStallCycles           12                       # Number of stall cycles due to pending quiesce instructions
system.cpu.fetch.IcacheWaitRetryStallCycles            6                       # Number of stall cycles due to full MSHR
system.cpu.fetch.CacheLines                  10074077                       # Number of cache lines fetched
system.cpu.fetch.IcacheSquashes                   572                       # Number of outstanding Icache misses that were squashed
system.cpu.fetch.rateDist::samples           67710853                       # Number of instructions fetched each cycle (Total)
system.cpu.fetch.rateDist::mean              2.021896                       # Number of instructions fetched each cycle (Total)
system.cpu.fetch.rateDist::stdev             1.880662                       # Number of instructions fetched each cycle (Total)
system.cpu.fetch.rateDist::underflows               0      0.00%      0.00% # Number of instructions fetched each cycle (Total)
system.cpu.fetch.rateDist::0                 28924067     42.72%     42.72% # Number of instructions fetched each cycle (Total)
system.cpu.fetch.rateDist::1                  2959809      4.37%     47.09% # Number of instructions fetched each cycle (Total)
system.cpu.fetch.rateDist::2                  2822309      4.17%     51.26% # Number of instructions fetched each cycle (Total)
system.cpu.fetch.rateDist::3                  3718812      5.49%     56.75% # Number of instructions fetched each cycle (Total)
system.cpu.fetch.rateDist::4                 29285856     43.25%    100.00% # Number of instructions fetched each cycle (Total)
system.cpu.fetch.rateDist::overflows                0      0.00%    100.00% # Number of instructions fetched each cycle (Total)
system.cpu.fetch.rateDist::min_value                0                       # Number of instructions fetched each cycle (Total)
system.cpu.fetch.rateDist::max_value                4                       # Number of instructions fetched each cycle (Total)
system.cpu.fetch.rateDist::total             67710853                       # Number of instructions fetched each cycle (Total)
system.cpu.fetch.branchRate                  0.199392                       # Number of branch fetches per cycle
system.cpu.fetch.rate                        1.138639                       # Number of inst fetches per cycle
system.cpu.decode.IdleCycles                  5777031                       # Number of cycles decode is idle
system.cpu.decode.BlockedCycles              27979208                       # Number of cycles decode is blocked
system.cpu.decode.RunCycles                  26325561                       # Number of cycles decode is running
system.cpu.decode.UnblockCycles               7264669                       # Number of cycles decode is unblocking
system.cpu.decode.SquashCycles                 364384                       # Number of cycles decode is squashing
system.cpu.decode.DecodedInsts              128055012                       # Number of instructions handled by decode
system.cpu.decode.SquashedInsts               2121135                       # Number of squashed instructions handled by decode
system.cpu.rename.SquashCycles                 364384                       # Number of cycles rename is squashing
system.cpu.rename.IdleCycles                 10936025                       # Number of cycles rename is idle
system.cpu.rename.BlockCycles                12957756                       # Number of cycles rename is blocking
system.cpu.rename.serializeStallCycles           2905                       # count of cycles rename stalled for serializing inst
system.cpu.rename.RunCycles                  27989969                       # Number of cycles rename is running
system.cpu.rename.UnblockCycles              15459814                       # Number of cycles rename is unblocking
system.cpu.rename.RenamedInsts              125888328                       # Number of instructions processed by rename
system.cpu.rename.SquashedInsts               1051635                       # Number of squashed instructions processed by rename
system.cpu.rename.ROBFullEvents                   114                       # Number of times rename has blocked due to ROB full
system.cpu.rename.IQFullEvents                9356588                       # Number of times rename has blocked due to IQ full
system.cpu.rename.SQFullEvents                3768412                       # Number of times rename has blocked due to SQ full
system.cpu.rename.FullRegisterEvents            75418                       # Number of times there has been no free registers
system.cpu.rename.RenamedOperands           148364665                       # Number of destination operands rename has renamed
system.cpu.rename.RenameLookups             308776135                       # Number of register rename lookups that rename has made
system.cpu.rename.int_rename_lookups        193011300                       # Number of integer rename lookups
system.cpu.rename.fp_rename_lookups            332395                       # Number of floating rename lookups
system.cpu.rename.CommittedMaps             130921918                       # Number of HB maps that are committed
system.cpu.rename.UndoneMaps                 17442747                       # Number of HB maps that are undone due to squashing
system.cpu.rename.serializingInsts                 59                       # count of serializing insts renamed
system.cpu.rename.tempSerializingInsts             56                       # count of temporary serializing insts renamed
system.cpu.rename.skidInsts                  24513335                       # count of insts added to the skid buffer
system.cpu.memDep0.insertedLoads             21105930                       # Number of loads inserted to the mem dependence unit.
system.cpu.memDep0.insertedStores             9702807                       # Number of stores inserted to the mem dependence unit.
system.cpu.memDep0.conflictingLoads           6156747                       # Number of conflicting loads.
system.cpu.memDep0.conflictingStores          1226895                       # Number of conflicting stores.
system.cpu.iq.iqInstsAdded                  123863048                       # Number of instructions added to the IQ (excludes non-spec)
system.cpu.iq.iqNonSpecInstsAdded                 302                       # Number of non-speculative instructions added to the IQ
system.cpu.iq.iqInstsIssued                 119638225                       # Number of instructions issued
system.cpu.iq.iqSquashedInstsIssued            622219                       # Number of squashed instructions issued
system.cpu.iq.iqSquashedInstsExamined        13823664                       # Number of squashed instructions iterated over during squash; mainly for profiling
system.cpu.iq.iqSquashedOperandsExamined     17629951                       # Number of squashed operands that are examined and possibly removed from graph
system.cpu.iq.iqSquashedNonSpecRemoved            266                       # Number of squashed non-spec instructions that were removed
system.cpu.iq.issued_per_cycle::samples      67710853                       # Number of insts issued each cycle
system.cpu.iq.issued_per_cycle::mean         1.766899                       # Number of insts issued each cycle
system.cpu.iq.issued_per_cycle::stdev        1.443160                       # Number of insts issued each cycle
system.cpu.iq.issued_per_cycle::underflows            0      0.00%      0.00% # Number of insts issued each cycle
system.cpu.iq.issued_per_cycle::0            17549985     25.92%     25.92% # Number of insts issued each cycle
system.cpu.iq.issued_per_cycle::1            15198919     22.45%     48.37% # Number of insts issued each cycle
system.cpu.iq.issued_per_cycle::2            12840073     18.96%     67.33% # Number of insts issued each cycle
system.cpu.iq.issued_per_cycle::3             9728344     14.37%     81.70% # Number of insts issued each cycle
system.cpu.iq.issued_per_cycle::4            12393532     18.30%    100.00% # Number of insts issued each cycle
system.cpu.iq.issued_per_cycle::overflows            0      0.00%    100.00% # Number of insts issued each cycle
system.cpu.iq.issued_per_cycle::min_value            0                       # Number of insts issued each cycle
system.cpu.iq.issued_per_cycle::max_value            4                       # Number of insts issued each cycle
system.cpu.iq.issued_per_cycle::total        67710853                       # Number of insts issued each cycle
system.cpu.iq.fu_full::No_OpClass                   0      0.00%      0.00% # attempts to use FU when none available
system.cpu.iq.fu_full::IntAlu                       0      0.00%      0.00% # attempts to use FU when none available
system.cpu.iq.fu_full::IntMult                      0      0.00%      0.00% # attempts to use FU when none available
system.cpu.iq.fu_full::IntDiv                       0      0.00%      0.00% # attempts to use FU when none available
system.cpu.iq.fu_full::FloatAdd                     0      0.00%      0.00% # attempts to use FU when none available
system.cpu.iq.fu_full::FloatCmp                     0      0.00%      0.00% # attempts to use FU when none available
system.cpu.iq.fu_full::FloatCvt                     0      0.00%      0.00% # attempts to use FU when none available
system.cpu.iq.fu_full::FloatMult                    0      0.00%      0.00% # attempts to use FU when none available
system.cpu.iq.fu_full::FloatMultAcc                 0      0.00%      0.00% # attempts to use FU when none available
system.cpu.iq.fu_full::FloatDiv                     0      0.00%      0.00% # attempts to use FU when none available
system.cpu.iq.fu_full::FloatMisc                    0      0.00%      0.00% # attempts to use FU when none available
system.cpu.iq.fu_full::FloatSqrt                    0      0.00%      0.00% # attempts to use FU when none available
system.cpu.iq.fu_full::SimdAdd                    264      0.00%      0.00% # attempts to use FU when none available
system.cpu.iq.fu_full::SimdAddAcc                   0      0.00%      0.00% # attempts to use FU when none available
system.cpu.iq.fu_full::SimdAlu                     70      0.00%      0.00% # attempts to use FU when none available
system.cpu.iq.fu_full::SimdCmp                      0      0.00%      0.00% # attempts to use FU when none available
system.cpu.iq.fu_full::SimdCvt                     64      0.00%      0.00% # attempts to use FU when none available
system.cpu.iq.fu_full::SimdMisc                   147      0.00%      0.00% # attempts to use FU when none available
system.cpu.iq.fu_full::SimdMult                     0      0.00%      0.00% # attempts to use FU when none available
system.cpu.iq.fu_full::SimdMultAcc                  0      0.00%      0.00% # attempts to use FU when none available
system.cpu.iq.fu_full::SimdShift                  124      0.00%      0.01% # attempts to use FU when none available
system.cpu.iq.fu_full::SimdShiftAcc                 0      0.00%      0.01% # attempts to use FU when none available
system.cpu.iq.fu_full::SimdSqrt                     0      0.00%      0.01% # attempts to use FU when none available
system.cpu.iq.fu_full::SimdFloatAdd                 0      0.00%      0.01% # attempts to use FU when none available
system.cpu.iq.fu_full::SimdFloatAlu                 0      0.00%      0.01% # attempts to use FU when none available
system.cpu.iq.fu_full::SimdFloatCmp                 0      0.00%      0.01% # attempts to use FU when none available
system.cpu.iq.fu_full::SimdFloatCvt                 0      0.00%      0.01% # attempts to use FU when none available
system.cpu.iq.fu_full::SimdFloatDiv                 0      0.00%      0.01% # attempts to use FU when none available
system.cpu.iq.fu_full::SimdFloatMisc                0      0.00%      0.01% # attempts to use FU when none available
system.cpu.iq.fu_full::SimdFloatMult                0      0.00%      0.01% # attempts to use FU when none available
system.cpu.iq.fu_full::SimdFloatMultAcc             0      0.00%      0.01% # attempts to use FU when none available
system.cpu.iq.fu_full::SimdFloatSqrt                0      0.00%      0.01% # attempts to use FU when none available
system.cpu.iq.fu_full::SimdAes                      0      0.00%      0.01% # attempts to use FU when none available
system.cpu.iq.fu_full::SimdAesMix                   0      0.00%      0.01% # attempts to use FU when none available
system.cpu.iq.fu_full::SimdSha1Hash                 0      0.00%      0.01% # attempts to use FU when none available
system.cpu.iq.fu_full::SimdSha1Hash2                0      0.00%      0.01% # attempts to use FU when none available
system.cpu.iq.fu_full::SimdSha256Hash               0      0.00%      0.01% # attempts to use FU when none available
system.cpu.iq.fu_full::SimdSha256Hash2              0      0.00%      0.01% # attempts to use FU when none available
system.cpu.iq.fu_full::SimdShaSigma2                0      0.00%      0.01% # attempts to use FU when none available
system.cpu.iq.fu_full::SimdShaSigma3                0      0.00%      0.01% # attempts to use FU when none available
system.cpu.iq.fu_full::MemRead               10660807     80.77%     80.78% # attempts to use FU when none available
system.cpu.iq.fu_full::MemWrite               2537096     19.22%    100.00% # attempts to use FU when none available
system.cpu.iq.fu_full::FloatMemRead                 0      0.00%    100.00% # attempts to use FU when none available
system.cpu.iq.fu_full::FloatMemWrite                0      0.00%    100.00% # attempts to use FU when none available
system.cpu.iq.fu_full::IprAccess                    0      0.00%    100.00% # attempts to use FU when none available
system.cpu.iq.fu_full::InstPrefetch                 0      0.00%    100.00% # attempts to use FU when none available
system.cpu.iq.FU_type_0::No_OpClass            275811      0.23%      0.23% # Type of FU issued
system.cpu.iq.FU_type_0::IntAlu              88788669     74.21%     74.44% # Type of FU issued
system.cpu.iq.FU_type_0::IntMult               646201      0.54%     74.98% # Type of FU issued
system.cpu.iq.FU_type_0::IntDiv                    31      0.00%     74.98% # Type of FU issued
system.cpu.iq.FU_type_0::FloatAdd               98538      0.08%     75.07% # Type of FU issued
system.cpu.iq.FU_type_0::FloatCmp                   0      0.00%     75.07% # Type of FU issued
system.cpu.iq.FU_type_0::FloatCvt                   0      0.00%     75.07% # Type of FU issued
system.cpu.iq.FU_type_0::FloatMult                  0      0.00%     75.07% # Type of FU issued
system.cpu.iq.FU_type_0::FloatMultAcc               0      0.00%     75.07% # Type of FU issued
system.cpu.iq.FU_type_0::FloatDiv                   0      0.00%     75.07% # Type of FU issued
system.cpu.iq.FU_type_0::FloatMisc                  0      0.00%     75.07% # Type of FU issued
system.cpu.iq.FU_type_0::FloatSqrt                  0      0.00%     75.07% # Type of FU issued
system.cpu.iq.FU_type_0::SimdAdd                  376      0.00%     75.07% # Type of FU issued
system.cpu.iq.FU_type_0::SimdAddAcc                 0      0.00%     75.07% # Type of FU issued
system.cpu.iq.FU_type_0::SimdAlu                   99      0.00%     75.07% # Type of FU issued
system.cpu.iq.FU_type_0::SimdCmp                    0      0.00%     75.07% # Type of FU issued
system.cpu.iq.FU_type_0::SimdCvt                  148      0.00%     75.07% # Type of FU issued
system.cpu.iq.FU_type_0::SimdMisc                 258      0.00%     75.07% # Type of FU issued
system.cpu.iq.FU_type_0::SimdMult                   0      0.00%     75.07% # Type of FU issued
system.cpu.iq.FU_type_0::SimdMultAcc                0      0.00%     75.07% # Type of FU issued
system.cpu.iq.FU_type_0::SimdShift                186      0.00%     75.07% # Type of FU issued
system.cpu.iq.FU_type_0::SimdShiftAcc               0      0.00%     75.07% # Type of FU issued
system.cpu.iq.FU_type_0::SimdSqrt                   0      0.00%     75.07% # Type of FU issued
system.cpu.iq.FU_type_0::SimdFloatAdd               0      0.00%     75.07% # Type of FU issued
system.cpu.iq.FU_type_0::SimdFloatAlu               0      0.00%     75.07% # Type of FU issued
system.cpu.iq.FU_type_0::SimdFloatCmp               0      0.00%     75.07% # Type of FU issued
system.cpu.iq.FU_type_0::SimdFloatCvt               0      0.00%     75.07% # Type of FU issued
system.cpu.iq.FU_type_0::SimdFloatDiv               0      0.00%     75.07% # Type of FU issued
system.cpu.iq.FU_type_0::SimdFloatMisc              0      0.00%     75.07% # Type of FU issued
system.cpu.iq.FU_type_0::SimdFloatMult              0      0.00%     75.07% # Type of FU issued
system.cpu.iq.FU_type_0::SimdFloatMultAcc            0      0.00%     75.07% # Type of FU issued
system.cpu.iq.FU_type_0::SimdFloatSqrt              0      0.00%     75.07% # Type of FU issued
system.cpu.iq.FU_type_0::SimdAes                    0      0.00%     75.07% # Type of FU issued
system.cpu.iq.FU_type_0::SimdAesMix                 0      0.00%     75.07% # Type of FU issued
system.cpu.iq.FU_type_0::SimdSha1Hash               0      0.00%     75.07% # Type of FU issued
system.cpu.iq.FU_type_0::SimdSha1Hash2              0      0.00%     75.07% # Type of FU issued
system.cpu.iq.FU_type_0::SimdSha256Hash             0      0.00%     75.07% # Type of FU issued
system.cpu.iq.FU_type_0::SimdSha256Hash2            0      0.00%     75.07% # Type of FU issued
system.cpu.iq.FU_type_0::SimdShaSigma2              0      0.00%     75.07% # Type of FU issued
system.cpu.iq.FU_type_0::SimdShaSigma3              0      0.00%     75.07% # Type of FU issued
system.cpu.iq.FU_type_0::MemRead             20309762     16.98%     92.04% # Type of FU issued
system.cpu.iq.FU_type_0::MemWrite             8900262      7.44%     99.48% # Type of FU issued
system.cpu.iq.FU_type_0::FloatMemRead          322212      0.27%     99.75% # Type of FU issued
system.cpu.iq.FU_type_0::FloatMemWrite         295672      0.25%    100.00% # Type of FU issued
system.cpu.iq.FU_type_0::IprAccess                  0      0.00%    100.00% # Type of FU issued
system.cpu.iq.FU_type_0::InstPrefetch               0      0.00%    100.00% # Type of FU issued
system.cpu.iq.FU_type_0::total              119638225                       # Type of FU issued
system.cpu.iq.rate                           1.765968                       # Inst issue rate
system.cpu.iq.fu_busy_cnt                    13198572                       # FU busy when requested
system.cpu.iq.fu_busy_rate                   0.110321                       # FU busy rate (busy events/executed inst)
system.cpu.iq.int_inst_queue_reads          319371375                       # Number of integer instruction queue reads
system.cpu.iq.int_inst_queue_writes         136765158                       # Number of integer instruction queue writes
system.cpu.iq.int_inst_queue_wakeup_accesses    116531480                       # Number of integer instruction queue wakeup accesses
system.cpu.iq.fp_inst_queue_reads             1436719                       # Number of floating instruction queue reads
system.cpu.iq.fp_inst_queue_writes             922300                       # Number of floating instruction queue writes
system.cpu.iq.fp_inst_queue_wakeup_accesses       691063                       # Number of floating instruction queue wakeup accesses
system.cpu.iq.vec_inst_queue_reads                  0                       # Number of vector instruction queue reads
system.cpu.iq.vec_inst_queue_writes                 0                       # Number of vector instruction queue writes
system.cpu.iq.vec_inst_queue_wakeup_accesses            0                       # Number of vector instruction queue wakeup accesses
system.cpu.iq.int_alu_accesses              131842295                       # Number of integer alu accesses
system.cpu.iq.fp_alu_accesses                  718691                       # Number of floating point alu accesses
system.cpu.iq.vec_alu_accesses                      0                       # Number of vector alu accesses
system.cpu.iew.lsq.thread0.forwLoads          2780033                       # Number of loads that had data forwarded from stores
system.cpu.iew.lsq.thread0.invAddrLoads             0                       # Number of loads ignored due to an invalid address
system.cpu.iew.lsq.thread0.squashedLoads      2056048                       # Number of loads squashed
system.cpu.iew.lsq.thread0.ignoredResponses          272                       # Number of memory responses ignored because the instruction is squashed
system.cpu.iew.lsq.thread0.memOrderViolation          444                       # Number of memory ordering violations
system.cpu.iew.lsq.thread0.squashedStores      1051283                       # Number of stores squashed
system.cpu.iew.lsq.thread0.invAddrSwpfs             0                       # Number of software prefetches ignored due to an invalid address
system.cpu.iew.lsq.thread0.blockedLoads             0                       # Number of blocked loads due to partial load-store forwarding
system.cpu.iew.lsq.thread0.rescheduledLoads            0                       # Number of loads that were rescheduled
system.cpu.iew.lsq.thread0.cacheBlocked            53                       # Number of times an access to memory failed due to the cache being blocked
system.cpu.iew.iewIdleCycles                        0                       # Number of cycles IEW is idle
system.cpu.iew.iewSquashCycles                 364384                       # Number of cycles IEW is squashing
system.cpu.iew.iewBlockCycles                 2283866                       # Number of cycles IEW is blocking
system.cpu.iew.iewUnblockCycles               1235156                       # Number of cycles IEW is unblocking
system.cpu.iew.iewDispatchedInsts           123863350                       # Number of instructions dispatched to IQ
system.cpu.iew.iewDispSquashedInsts            563582                       # Number of squashed instructions skipped by dispatch
system.cpu.iew.iewDispLoadInsts              21105930                       # Number of dispatched load instructions
system.cpu.iew.iewDispStoreInsts              9702807                       # Number of dispatched store instructions
system.cpu.iew.iewDispNonSpecInsts                132                       # Number of dispatched non-speculative instructions
system.cpu.iew.iewIQFullEvents                 800267                       # Number of times the IQ has become full, causing a stall
system.cpu.iew.iewLSQFullEvents                  5873                       # Number of times the LSQ has become full, causing a stall
system.cpu.iew.memOrderViolationEvents            444                       # Number of memory order violations
system.cpu.iew.predictedTakenIncorrect            879                       # Number of branches that were predicted taken incorrectly
system.cpu.iew.predictedNotTakenIncorrect       377661                       # Number of branches that were predicted not taken incorrectly
system.cpu.iew.branchMispredicts               378540                       # Number of branch mispredicts detected at execute
system.cpu.iew.iewExecutedInsts             117636636                       # Number of executed instructions
system.cpu.iew.iewExecLoadInsts              20308754                       # Number of load instructions executed
system.cpu.iew.iewExecSquashedInsts           2001589                       # Number of squashed instructions skipped in execute
system.cpu.iew.exec_swp                             0                       # number of swp insts executed
system.cpu.iew.exec_nop                             0                       # number of nop insts executed
system.cpu.iew.exec_refs                     29384873                       # number of memory reference insts executed
system.cpu.iew.exec_branches                 11008869                       # Number of branches executed
system.cpu.iew.exec_stores                    9076119                       # Number of stores executed
system.cpu.iew.exec_rate                     1.736423                       # Inst execution rate
system.cpu.iew.wb_sent                      117414150                       # cumulative count of insts sent to commit
system.cpu.iew.wb_count                     117222543                       # cumulative count of insts written-back
system.cpu.iew.wb_producers                  87811296                       # num instructions producing a value
system.cpu.iew.wb_consumers                 126879181                       # num instructions consuming a value
system.cpu.iew.wb_rate                       1.730310                       # insts written-back per cycle
system.cpu.iew.wb_fanout                     0.692086                       # average fanout of values written-back
system.cpu.commit.commitSquashedInsts        12584401                       # The number of squashed insts skipped by commit
system.cpu.commit.commitNonSpecStalls              36                       # The number of times commit has been forced to stall to communicate backwards
system.cpu.commit.branchMispredicts            363959                       # The number of times a branch was mispredicted
system.cpu.commit.committed_per_cycle::samples     67154126                       # Number of insts commited each cycle
system.cpu.commit.committed_per_cycle::mean     1.638614                       # Number of insts commited each cycle
system.cpu.commit.committed_per_cycle::stdev     1.710104                       # Number of insts commited each cycle
system.cpu.commit.committed_per_cycle::underflows            0      0.00%      0.00% # Number of insts commited each cycle
system.cpu.commit.committed_per_cycle::0     28908468     43.05%     43.05% # Number of insts commited each cycle
system.cpu.commit.committed_per_cycle::1      9410839     14.01%     57.06% # Number of insts commited each cycle
system.cpu.commit.committed_per_cycle::2      4453413      6.63%     63.69% # Number of insts commited each cycle
system.cpu.commit.committed_per_cycle::3      5803604      8.64%     72.34% # Number of insts commited each cycle
system.cpu.commit.committed_per_cycle::4     18577802     27.66%    100.00% # Number of insts commited each cycle
system.cpu.commit.committed_per_cycle::overflows            0      0.00%    100.00% # Number of insts commited each cycle
system.cpu.commit.committed_per_cycle::min_value            0                       # Number of insts commited each cycle
system.cpu.commit.committed_per_cycle::max_value            4                       # Number of insts commited each cycle
system.cpu.commit.committed_per_cycle::total     67154126                       # Number of insts commited each cycle
system.cpu.commit.committedInsts             62525833                       # Number of instructions committed
system.cpu.commit.committedOps              110039685                       # Number of ops (including micro ops) committed
system.cpu.commit.swp_count                         0                       # Number of s/w prefetches committed
system.cpu.commit.refs                       27701406                       # Number of memory references committed
system.cpu.commit.loads                      19049882                       # Number of loads committed
system.cpu.commit.membars                           0                       # Number of memory barriers committed
system.cpu.commit.branches                   10575287                       # Number of branches committed
system.cpu.commit.vec_insts                         0                       # Number of committed Vector instructions.
system.cpu.commit.fp_insts                     591928                       # Number of committed floating point instructions.
system.cpu.commit.int_insts                 109906472                       # Number of committed integer instructions.
system.cpu.commit.function_calls               329514                       # Number of function calls committed.
system.cpu.commit.op_class_0::No_OpClass        66156      0.06%      0.06% # Class of committed instruction
system.cpu.commit.op_class_0::IntAlu         81559305     74.12%     74.18% # Class of committed instruction
system.cpu.commit.op_class_0::IntMult          646190      0.59%     74.77% # Class of committed instruction
system.cpu.commit.op_class_0::IntDiv               28      0.00%     74.77% # Class of committed instruction
system.cpu.commit.op_class_0::FloatAdd          65551      0.06%     74.83% # Class of committed instruction
system.cpu.commit.op_class_0::FloatCmp              0      0.00%     74.83% # Class of committed instruction
system.cpu.commit.op_class_0::FloatCvt              0      0.00%     74.83% # Class of committed instruction
system.cpu.commit.op_class_0::FloatMult             0      0.00%     74.83% # Class of committed instruction
system.cpu.commit.op_class_0::FloatMultAcc            0      0.00%     74.83% # Class of committed instruction
system.cpu.commit.op_class_0::FloatDiv              0      0.00%     74.83% # Class of committed instruction
system.cpu.commit.op_class_0::FloatMisc             0      0.00%     74.83% # Class of committed instruction
system.cpu.commit.op_class_0::FloatSqrt             0      0.00%     74.83% # Class of committed instruction
system.cpu.commit.op_class_0::SimdAdd             374      0.00%     74.83% # Class of committed instruction
system.cpu.commit.op_class_0::SimdAddAcc            0      0.00%     74.83% # Class of committed instruction
system.cpu.commit.op_class_0::SimdAlu              94      0.00%     74.83% # Class of committed instruction
system.cpu.commit.op_class_0::SimdCmp               0      0.00%     74.83% # Class of committed instruction
system.cpu.commit.op_class_0::SimdCvt             140      0.00%     74.83% # Class of committed instruction
system.cpu.commit.op_class_0::SimdMisc            255      0.00%     74.83% # Class of committed instruction
system.cpu.commit.op_class_0::SimdMult              0      0.00%     74.83% # Class of committed instruction
system.cpu.commit.op_class_0::SimdMultAcc            0      0.00%     74.83% # Class of committed instruction
system.cpu.commit.op_class_0::SimdShift           186      0.00%     74.83% # Class of committed instruction
system.cpu.commit.op_class_0::SimdShiftAcc            0      0.00%     74.83% # Class of committed instruction
system.cpu.commit.op_class_0::SimdSqrt              0      0.00%     74.83% # Class of committed instruction
system.cpu.commit.op_class_0::SimdFloatAdd            0      0.00%     74.83% # Class of committed instruction
system.cpu.commit.op_class_0::SimdFloatAlu            0      0.00%     74.83% # Class of committed instruction
system.cpu.commit.op_class_0::SimdFloatCmp            0      0.00%     74.83% # Class of committed instruction
system.cpu.commit.op_class_0::SimdFloatCvt            0      0.00%     74.83% # Class of committed instruction
system.cpu.commit.op_class_0::SimdFloatDiv            0      0.00%     74.83% # Class of committed instruction
system.cpu.commit.op_class_0::SimdFloatMisc            0      0.00%     74.83% # Class of committed instruction
system.cpu.commit.op_class_0::SimdFloatMult            0      0.00%     74.83% # Class of committed instruction
system.cpu.commit.op_class_0::SimdFloatMultAcc            0      0.00%     74.83% # Class of committed instruction
system.cpu.commit.op_class_0::SimdFloatSqrt            0      0.00%     74.83% # Class of committed instruction
system.cpu.commit.op_class_0::SimdAes               0      0.00%     74.83% # Class of committed instruction
system.cpu.commit.op_class_0::SimdAesMix            0      0.00%     74.83% # Class of committed instruction
system.cpu.commit.op_class_0::SimdSha1Hash            0      0.00%     74.83% # Class of committed instruction
system.cpu.commit.op_class_0::SimdSha1Hash2            0      0.00%     74.83% # Class of committed instruction
system.cpu.commit.op_class_0::SimdSha256Hash            0      0.00%     74.83% # Class of committed instruction
system.cpu.commit.op_class_0::SimdSha256Hash2            0      0.00%     74.83% # Class of committed instruction
system.cpu.commit.op_class_0::SimdShaSigma2            0      0.00%     74.83% # Class of committed instruction
system.cpu.commit.op_class_0::SimdShaSigma3            0      0.00%     74.83% # Class of committed instruction
system.cpu.commit.op_class_0::MemRead        18787650     17.07%     91.90% # Class of committed instruction
system.cpu.commit.op_class_0::MemWrite        8388953      7.62%     99.52% # Class of committed instruction
system.cpu.commit.op_class_0::FloatMemRead       262232      0.24%     99.76% # Class of committed instruction
system.cpu.commit.op_class_0::FloatMemWrite       262571      0.24%    100.00% # Class of committed instruction
system.cpu.commit.op_class_0::IprAccess             0      0.00%    100.00% # Class of committed instruction
system.cpu.commit.op_class_0::InstPrefetch            0      0.00%    100.00% # Class of committed instruction
system.cpu.commit.op_class_0::total         110039685                       # Class of committed instruction
system.cpu.commit.bw_lim_events              18577802                       # number cycles where commit BW limit reached
system.cpu.rob.rob_reads                    171200410                       # The number of ROB reads
system.cpu.rob.rob_writes                   245804900                       # The number of ROB writes
system.cpu.timesIdled                             432                       # Number of times that the entire CPU went into an idle state and unscheduled itself
system.cpu.idleCycles                           35687                       # Total number of cycles that the CPU has spent unscheduled due to idling
system.cpu.committedInsts                    62525833                       # Number of Instructions Simulated
system.cpu.committedOps                     110039685                       # Number of Ops (including micro ops) Simulated
system.cpu.cpi                               1.083497                       # CPI: Cycles Per Instruction
system.cpu.cpi_total                         1.083497                       # CPI: Total CPI of All Threads
system.cpu.ipc                               0.922938                       # IPC: Instructions Per Cycle
system.cpu.ipc_total                         0.922938                       # IPC: Total IPC of All Threads
system.cpu.int_regfile_reads                178787661                       # number of integer regfile reads
system.cpu.int_regfile_writes                97334710                       # number of integer regfile writes
system.cpu.fp_regfile_reads                    299296                       # number of floating regfile reads
system.cpu.fp_regfile_writes                   395325                       # number of floating regfile writes
system.cpu.cc_regfile_reads                  52378140                       # number of cc regfile reads
system.cpu.cc_regfile_writes                 41002526                       # number of cc regfile writes
system.cpu.misc_regfile_reads                52856149                       # number of misc regfile reads
system.cpu.dcache.tags.pwrStateResidencyTicks::UNDEFINED  33873269500                       # Cumulative time (in ticks) in various power states
system.cpu.dcache.tags.tagsinuse           511.367766                       # Cycle average of tags in use
system.cpu.dcache.tags.total_refs            26178985                       # Total number of references to valid blocks.
system.cpu.dcache.tags.sampled_refs             15262                       # Sample count of references to valid blocks.
system.cpu.dcache.tags.avg_refs           1715.305006                       # Average number of references to valid blocks.
system.cpu.dcache.tags.warmup_cycle            169500                       # Cycle when the warmup percentage was hit.
system.cpu.dcache.tags.occ_blocks::.cpu.data   511.367766                       # Average occupied blocks per requestor
system.cpu.dcache.tags.occ_percent::.cpu.data     0.998765                       # Average percentage of cache occupancy
system.cpu.dcache.tags.occ_percent::total     0.998765                       # Average percentage of cache occupancy
system.cpu.dcache.tags.occ_task_id_blocks::1024          512                       # Occupied blocks per task id
system.cpu.dcache.tags.age_task_id_blocks_1024::0          153                       # Occupied blocks per task id
system.cpu.dcache.tags.age_task_id_blocks_1024::1          357                       # Occupied blocks per task id
system.cpu.dcache.tags.age_task_id_blocks_1024::4            2                       # Occupied blocks per task id
system.cpu.dcache.tags.occ_task_id_percent::1024            1                       # Percentage of cache occupancy per task id
system.cpu.dcache.tags.tag_accesses         209455806                       # Number of tag accesses
system.cpu.dcache.tags.data_accesses        209455806                       # Number of data accesses
system.cpu.dcache.pwrStateResidencyTicks::UNDEFINED  33873269500                       # Cumulative time (in ticks) in various power states
system.cpu.dcache.ReadReq_hits::.cpu.data     17521211                       # number of ReadReq hits
system.cpu.dcache.ReadReq_hits::total        17521211                       # number of ReadReq hits
system.cpu.dcache.WriteReq_hits::.cpu.data      8641943                       # number of WriteReq hits
system.cpu.dcache.WriteReq_hits::total        8641943                       # number of WriteReq hits
system.cpu.dcache.demand_hits::.cpu.data     26163154                       # number of demand (read+write) hits
system.cpu.dcache.demand_hits::total         26163154                       # number of demand (read+write) hits
system.cpu.dcache.overall_hits::.cpu.data     26163154                       # number of overall hits
system.cpu.dcache.overall_hits::total        26163154                       # number of overall hits
system.cpu.dcache.ReadReq_misses::.cpu.data         7333                       # number of ReadReq misses
system.cpu.dcache.ReadReq_misses::total          7333                       # number of ReadReq misses
system.cpu.dcache.WriteReq_misses::.cpu.data         9581                       # number of WriteReq misses
system.cpu.dcache.WriteReq_misses::total         9581                       # number of WriteReq misses
system.cpu.dcache.demand_misses::.cpu.data        16914                       # number of demand (read+write) misses
system.cpu.dcache.demand_misses::total          16914                       # number of demand (read+write) misses
system.cpu.dcache.overall_misses::.cpu.data        16914                       # number of overall misses
system.cpu.dcache.overall_misses::total         16914                       # number of overall misses
system.cpu.dcache.ReadReq_miss_latency::.cpu.data    242035500                       # number of ReadReq miss cycles
system.cpu.dcache.ReadReq_miss_latency::total    242035500                       # number of ReadReq miss cycles
system.cpu.dcache.WriteReq_miss_latency::.cpu.data    776958998                       # number of WriteReq miss cycles
system.cpu.dcache.WriteReq_miss_latency::total    776958998                       # number of WriteReq miss cycles
system.cpu.dcache.demand_miss_latency::.cpu.data   1018994498                       # number of demand (read+write) miss cycles
system.cpu.dcache.demand_miss_latency::total   1018994498                       # number of demand (read+write) miss cycles
system.cpu.dcache.overall_miss_latency::.cpu.data   1018994498                       # number of overall miss cycles
system.cpu.dcache.overall_miss_latency::total   1018994498                       # number of overall miss cycles
system.cpu.dcache.ReadReq_accesses::.cpu.data     17528544                       # number of ReadReq accesses(hits+misses)
system.cpu.dcache.ReadReq_accesses::total     17528544                       # number of ReadReq accesses(hits+misses)
system.cpu.dcache.WriteReq_accesses::.cpu.data      8651524                       # number of WriteReq accesses(hits+misses)
system.cpu.dcache.WriteReq_accesses::total      8651524                       # number of WriteReq accesses(hits+misses)
system.cpu.dcache.demand_accesses::.cpu.data     26180068                       # number of demand (read+write) accesses
system.cpu.dcache.demand_accesses::total     26180068                       # number of demand (read+write) accesses
system.cpu.dcache.overall_accesses::.cpu.data     26180068                       # number of overall (read+write) accesses
system.cpu.dcache.overall_accesses::total     26180068                       # number of overall (read+write) accesses
system.cpu.dcache.ReadReq_miss_rate::.cpu.data     0.000418                       # miss rate for ReadReq accesses
system.cpu.dcache.ReadReq_miss_rate::total     0.000418                       # miss rate for ReadReq accesses
system.cpu.dcache.WriteReq_miss_rate::.cpu.data     0.001107                       # miss rate for WriteReq accesses
system.cpu.dcache.WriteReq_miss_rate::total     0.001107                       # miss rate for WriteReq accesses
system.cpu.dcache.demand_miss_rate::.cpu.data     0.000646                       # miss rate for demand accesses
system.cpu.dcache.demand_miss_rate::total     0.000646                       # miss rate for demand accesses
system.cpu.dcache.overall_miss_rate::.cpu.data     0.000646                       # miss rate for overall accesses
system.cpu.dcache.overall_miss_rate::total     0.000646                       # miss rate for overall accesses
[...]
system.l3cache.tags.occ_percent::.cpu.data     0.147794                       # Average percentage of cache occupancy
system.l3cache.tags.occ_percent::total       0.169243                       # Average percentage of cache occupancy
system.l3cache.tags.occ_task_id_blocks::1024         9580                       # Occupied blocks per task id
system.l3cache.tags.age_task_id_blocks_1024::0           66                       # Occupied blocks per task id
system.l3cache.tags.age_task_id_blocks_1024::1           28                       # Occupied blocks per task id
system.l3cache.tags.age_task_id_blocks_1024::2          211                       # Occupied blocks per task id
system.l3cache.tags.age_task_id_blocks_1024::3         2095                       # Occupied blocks per task id
system.l3cache.tags.age_task_id_blocks_1024::4         7180                       # Occupied blocks per task id
system.l3cache.tags.occ_task_id_percent::1024     0.292358                       # Percentage of cache occupancy per task id
system.l3cache.tags.tag_accesses               394476                       # Number of tag accesses
system.l3cache.tags.data_accesses              394476                       # Number of data accesses
system.l3cache.pwrStateResidencyTicks::UNDEFINED  33873269500                       # Cumulative time (in ticks) in various power states
system.l3cache.WritebackDirty_hits::.writebacks         9487                       # number of WritebackDirty hits
system.l3cache.WritebackDirty_hits::total         9487                       # number of WritebackDirty hits
system.l3cache.ReadExReq_hits::.cpu.data          312                       # number of ReadExReq hits
system.l3cache.ReadExReq_hits::total              312                       # number of ReadExReq hits
system.l3cache.ReadSharedReq_hits::.cpu.inst           18                       # number of ReadSharedReq hits
system.l3cache.ReadSharedReq_hits::.cpu.data         4659                       # number of ReadSharedReq hits
system.l3cache.ReadSharedReq_hits::total         4677                       # number of ReadSharedReq hits
system.l3cache.demand_hits::.cpu.inst              18                       # number of demand (read+write) hits
system.l3cache.demand_hits::.cpu.data            4971                       # number of demand (read+write) hits
system.l3cache.demand_hits::total                4989                       # number of demand (read+write) hits
system.l3cache.overall_hits::.cpu.inst             18                       # number of overall hits
system.l3cache.overall_hits::.cpu.data           4971                       # number of overall hits
system.l3cache.overall_hits::total               4989                       # number of overall hits
system.l3cache.ReadExReq_misses::.cpu.data         8486                       # number of ReadExReq misses
system.l3cache.ReadExReq_misses::total           8486                       # number of ReadExReq misses
system.l3cache.ReadSharedReq_misses::.cpu.inst          801                       # number of ReadSharedReq misses
system.l3cache.ReadSharedReq_misses::.cpu.data          293                       # number of ReadSharedReq misses
system.l3cache.ReadSharedReq_misses::total         1094                       # number of ReadSharedReq misses
system.l3cache.demand_misses::.cpu.inst           801                       # number of demand (read+write) misses
system.l3cache.demand_misses::.cpu.data          8779                       # number of demand (read+write) misses
system.l3cache.demand_misses::total              9580                       # number of demand (read+write) misses
system.l3cache.overall_misses::.cpu.inst          801                       # number of overall misses
system.l3cache.overall_misses::.cpu.data         8779                       # number of overall misses
system.l3cache.overall_misses::total             9580                       # number of overall misses
system.l3cache.ReadExReq_miss_latency::.cpu.data    645325000                       # number of ReadExReq miss cycles
system.l3cache.ReadExReq_miss_latency::total    645325000                       # number of ReadExReq miss cycles
system.l3cache.ReadSharedReq_miss_latency::.cpu.inst     58992000                       # number of ReadSharedReq miss cycles
system.l3cache.ReadSharedReq_miss_latency::.cpu.data     27875000                       # number of ReadSharedReq miss cycles
system.l3cache.ReadSharedReq_miss_latency::total     86867000                       # number of ReadSharedReq miss cycles
system.l3cache.demand_miss_latency::.cpu.inst     58992000                       # number of demand (read+write) miss cycles
system.l3cache.demand_miss_latency::.cpu.data    673200000                       # number of demand (read+write) miss cycles
system.l3cache.demand_miss_latency::total    732192000                       # number of demand (read+write) miss cycles
system.l3cache.overall_miss_latency::.cpu.inst     58992000                       # number of overall miss cycles
system.l3cache.overall_miss_latency::.cpu.data    673200000                       # number of overall miss cycles
system.l3cache.overall_miss_latency::total    732192000                       # number of overall miss cycles
system.l3cache.WritebackDirty_accesses::.writebacks         9487                       # number of WritebackDirty accesses(hits+misses)
system.l3cache.WritebackDirty_accesses::total         9487                       # number of WritebackDirty accesses(hits+misses)
system.l3cache.ReadExReq_accesses::.cpu.data         8798                       # number of ReadExReq accesses(hits+misses)
system.l3cache.ReadExReq_accesses::total         8798                       # number of ReadExReq accesses(hits+misses)
system.l3cache.ReadSharedReq_accesses::.cpu.inst          819                       # number of ReadSharedReq accesses(hits+misses)
system.l3cache.ReadSharedReq_accesses::.cpu.data         4952                       # number of ReadSharedReq accesses(hits+misses)
system.l3cache.ReadSharedReq_accesses::total         5771                       # number of ReadSharedReq accesses(hits+misses)
system.l3cache.demand_accesses::.cpu.inst          819                       # number of demand (read+write) accesses
system.l3cache.demand_accesses::.cpu.data        13750                       # number of demand (read+write) accesses
system.l3cache.demand_accesses::total           14569                       # number of demand (read+write) accesses
system.l3cache.overall_accesses::.cpu.inst          819                       # number of overall (read+write) accesses
system.l3cache.overall_accesses::.cpu.data        13750                       # number of overall (read+write) accesses
system.l3cache.overall_accesses::total          14569                       # number of overall (read+write) accesses
system.l3cache.ReadExReq_miss_rate::.cpu.data     0.964537                       # miss rate for ReadExReq accesses
system.l3cache.ReadExReq_miss_rate::total     0.964537                       # miss rate for ReadExReq accesses
system.l3cache.ReadSharedReq_miss_rate::.cpu.inst     0.978022                       # miss rate for ReadSharedReq accesses
system.l3cache.ReadSharedReq_miss_rate::.cpu.data     0.059168                       # miss rate for ReadSharedReq accesses
system.l3cache.ReadSharedReq_miss_rate::total     0.189569                       # miss rate for ReadSharedReq accesses
system.l3cache.demand_miss_rate::.cpu.inst     0.978022                       # miss rate for demand accesses
system.l3cache.demand_miss_rate::.cpu.data     0.638473                       # miss rate for demand accesses
system.l3cache.demand_miss_rate::total       0.657561                       # miss rate for demand accesses
system.l3cache.overall_miss_rate::.cpu.inst     0.978022                       # miss rate for overall accesses
system.l3cache.overall_miss_rate::.cpu.data     0.638473                       # miss rate for overall accesses
system.l3cache.overall_miss_rate::total      0.657561                       # miss rate for overall accesses
system.l3cache.ReadExReq_avg_miss_latency::.cpu.data 76045.840207                       # average ReadExReq miss latency
system.l3cache.ReadExReq_avg_miss_latency::total 76045.840207                       # average ReadExReq miss latency
system.l3cache.ReadSharedReq_avg_miss_latency::.cpu.inst 73647.940075                       # average ReadSharedReq miss latency
system.l3cache.ReadSharedReq_avg_miss_latency::.cpu.data 95136.518771                       # average ReadSharedReq miss latency
system.l3cache.ReadSharedReq_avg_miss_latency::total 79403.107861                       # average ReadSharedReq miss latency
system.l3cache.demand_avg_miss_latency::.cpu.inst 73647.940075                       # average overall miss latency
system.l3cache.demand_avg_miss_latency::.cpu.data 76682.993507                       # average overall miss latency
system.l3cache.demand_avg_miss_latency::total 76429.227557                       # average overall miss latency
system.l3cache.overall_avg_miss_latency::.cpu.inst 73647.940075                       # average overall miss latency
system.l3cache.overall_avg_miss_latency::.cpu.data 76682.993507                       # average overall miss latency
system.l3cache.overall_avg_miss_latency::total 76429.227557                       # average overall miss latency
system.l3cache.blocked_cycles::no_mshrs             0                       # number of cycles access was blocked
system.l3cache.blocked_cycles::no_targets            0                       # number of cycles access was blocked
system.l3cache.blocked::no_mshrs                    0                       # number of cycles access was blocked
system.l3cache.blocked::no_targets                  0                       # number of cycles access was blocked
system.l3cache.avg_blocked_cycles::no_mshrs          nan                       # average number of cycles each access was blocked
system.l3cache.avg_blocked_cycles::no_targets          nan                       # average number of cycles each access was blocked
system.l3cache.ReadExReq_mshr_misses::.cpu.data         8486                       # number of ReadExReq MSHR misses
system.l3cache.ReadExReq_mshr_misses::total         8486                       # number of ReadExReq MSHR misses
system.l3cache.ReadSharedReq_mshr_misses::.cpu.inst          801                       # number of ReadSharedReq MSHR misses
system.l3cache.ReadSharedReq_mshr_misses::.cpu.data          293                       # number of ReadSharedReq MSHR misses
system.l3cache.ReadSharedReq_mshr_misses::total         1094                       # number of ReadSharedReq MSHR misses
system.l3cache.demand_mshr_misses::.cpu.inst          801                       # number of demand (read+write) MSHR misses
system.l3cache.demand_mshr_misses::.cpu.data         8779                       # number of demand (read+write) MSHR misses
system.l3cache.demand_mshr_misses::total         9580                       # number of demand (read+write) MSHR misses
system.l3cache.overall_mshr_misses::.cpu.inst          801                       # number of overall MSHR misses
system.l3cache.overall_mshr_misses::.cpu.data         8779                       # number of overall MSHR misses
system.l3cache.overall_mshr_misses::total         9580                       # number of overall MSHR misses
system.l3cache.ReadExReq_mshr_miss_latency::.cpu.data    628353000                       # number of ReadExReq MSHR miss cycles
system.l3cache.ReadExReq_mshr_miss_latency::total    628353000                       # number of ReadExReq MSHR miss cycles
system.l3cache.ReadSharedReq_mshr_miss_latency::.cpu.inst     57390000                       # number of ReadSharedReq MSHR miss cycles
system.l3cache.ReadSharedReq_mshr_miss_latency::.cpu.data     27289000                       # number of ReadSharedReq MSHR miss cycles
system.l3cache.ReadSharedReq_mshr_miss_latency::total     84679000                       # number of ReadSharedReq MSHR miss cycles
system.l3cache.demand_mshr_miss_latency::.cpu.inst     57390000                       # number of demand (read+write) MSHR miss cycles
system.l3cache.demand_mshr_miss_latency::.cpu.data    655642000                       # number of demand (read+write) MSHR miss cycles
system.l3cache.demand_mshr_miss_latency::total    713032000                       # number of demand (read+write) MSHR miss cycles
system.l3cache.overall_mshr_miss_latency::.cpu.inst     57390000                       # number of overall MSHR miss cycles
system.l3cache.overall_mshr_miss_latency::.cpu.data    655642000                       # number of overall MSHR miss cycles
system.l3cache.overall_mshr_miss_latency::total    713032000                       # number of overall MSHR miss cycles
system.l3cache.ReadExReq_mshr_miss_rate::.cpu.data     0.964537                       # mshr miss rate for ReadExReq accesses
system.l3cache.ReadExReq_mshr_miss_rate::total     0.964537                       # mshr miss rate for ReadExReq accesses
system.l3cache.ReadSharedReq_mshr_miss_rate::.cpu.inst     0.978022                       # mshr miss rate for ReadSharedReq accesses
system.l3cache.ReadSharedReq_mshr_miss_rate::.cpu.data     0.059168                       # mshr miss rate for ReadSharedReq accesses
system.l3cache.ReadSharedReq_mshr_miss_rate::total     0.189569                       # mshr miss rate for ReadSharedReq accesses
system.l3cache.demand_mshr_miss_rate::.cpu.inst     0.978022                       # mshr miss rate for demand accesses
system.l3cache.demand_mshr_miss_rate::.cpu.data     0.638473                       # mshr miss rate for demand accesses
system.l3cache.demand_mshr_miss_rate::total     0.657561                       # mshr miss rate for demand accesses
system.l3cache.overall_mshr_miss_rate::.cpu.inst     0.978022                       # mshr miss rate for overall accesses
system.l3cache.overall_mshr_miss_rate::.cpu.data     0.638473                       # mshr miss rate for overall accesses
system.l3cache.overall_mshr_miss_rate::total     0.657561                       # mshr miss rate for overall accesses
system.l3cache.ReadExReq_avg_mshr_miss_latency::.cpu.data 74045.840207                       # average ReadExReq mshr miss latency
system.l3cache.ReadExReq_avg_mshr_miss_latency::total 74045.840207                       # average ReadExReq mshr miss latency
system.l3cache.ReadSharedReq_avg_mshr_miss_latency::.cpu.inst 71647.940075                       # average ReadSharedReq mshr miss latency
system.l3cache.ReadSharedReq_avg_mshr_miss_latency::.cpu.data 93136.518771                       # average ReadSharedReq mshr miss latency
system.l3cache.ReadSharedReq_avg_mshr_miss_latency::total 77403.107861                       # average ReadSharedReq mshr miss latency
system.l3cache.demand_avg_mshr_miss_latency::.cpu.inst 71647.940075                       # average overall mshr miss latency
system.l3cache.demand_avg_mshr_miss_latency::.cpu.data 74682.993507                       # average overall mshr miss latency
system.l3cache.demand_avg_mshr_miss_latency::total 74429.227557                       # average overall mshr miss latency
system.l3cache.overall_avg_mshr_miss_latency::.cpu.inst 71647.940075                       # average overall mshr miss latency
system.l3cache.overall_avg_mshr_miss_latency::.cpu.data 74682.993507                       # average overall mshr miss latency
system.l3cache.overall_avg_mshr_miss_latency::total 74429.227557                       # average overall mshr miss latency
system.l3cache.replacements                         0                       # number of replacements
system.membus.snoop_filter.tot_requests          9580                       # Total number of requests made to the snoop filter.
system.membus.snoop_filter.hit_single_requests            0                       # Number of requests hitting in the snoop filter with a single holder of the requested data.
system.membus.snoop_filter.hit_multi_requests            0                       # Number of requests hitting in the snoop filter with multiple (>1) holders of the requested data.
system.membus.snoop_filter.tot_snoops               0                       # Total number of snoops made to the snoop filter.
system.membus.snoop_filter.hit_single_snoops            0                       # Number of snoops hitting in the snoop filter with a single holder of the requested data.
system.membus.snoop_filter.hit_multi_snoops            0                       # Number of snoops hitting in the snoop filter with multiple (>1) holders of the requested data.
system.membus.pwrStateResidencyTicks::UNDEFINED  33873269500                       # Cumulative time (in ticks) in various power states
system.membus.trans_dist::ReadResp               1094                       # Transaction distribution
system.membus.trans_dist::ReadExReq              8486                       # Transaction distribution
system.membus.trans_dist::ReadExResp             8486                       # Transaction distribution
system.membus.trans_dist::ReadSharedReq          1094                       # Transaction distribution
system.membus.pkt_count_system.l3cache.mem_side::system.mem_ctrl.port        19160                       # Packet count per connected master and slave (bytes)
system.membus.pkt_count_system.l3cache.mem_side::total        19160                       # Packet count per connected master and slave (bytes)
system.membus.pkt_count::total                  19160                       # Packet count per connected master and slave (bytes)
system.membus.pkt_size_system.l3cache.mem_side::system.mem_ctrl.port       613120                       # Cumulative packet size per connected master and slave (bytes)
system.membus.pkt_size_system.l3cache.mem_side::total       613120                       # Cumulative packet size per connected master and slave (bytes)
system.membus.pkt_size::total                  613120                       # Cumulative packet size per connected master and slave (bytes)
system.membus.snoops                                0                       # Total snoops (count)
system.membus.snoopTraffic                          0                       # Total snoop traffic (bytes)
system.membus.snoop_fanout::samples              9580                       # Request fanout histogram
system.membus.snoop_fanout::mean                    0                       # Request fanout histogram
system.membus.snoop_fanout::stdev                   0                       # Request fanout histogram
system.membus.snoop_fanout::underflows              0      0.00%      0.00% # Request fanout histogram
system.membus.snoop_fanout::0                    9580    100.00%    100.00% # Request fanout histogram
system.membus.snoop_fanout::1                       0      0.00%    100.00% # Request fanout histogram
system.membus.snoop_fanout::overflows               0      0.00%    100.00% # Request fanout histogram
system.membus.snoop_fanout::min_value               0                       # Request fanout histogram
system.membus.snoop_fanout::max_value               0                       # Request fanout histogram
system.membus.snoop_fanout::total                9580                       # Request fanout histogram
system.membus.reqLayer0.occupancy             4790000                       # Layer occupancy (ticks)
system.membus.reqLayer0.utilization               0.0                       # Layer utilization (%)
system.membus.respLayer0.occupancy           25224750                       # Layer occupancy (ticks)
system.membus.respLayer0.utilization              0.1                       # Layer utilization (%)

---------- End Simulation Statistics   ----------