
---------- Begin Simulation Statistics ----------
sim_seconds                                  0.036262                       # Number of seconds simulated
sim_ticks                                 36261606500                       # Number of ticks simulated
final_tick                                36261606500                       # Number of ticks from beginning of simulation (restored from checkpoints and never reset)
sim_freq                                 1000000000000                       # Frequency of simulated ticks
host_inst_rate                                 288322                       # Simulator instruction rate (inst/s)
host_op_rate                                   507419                       # Simulator op (including micro ops) rate (op/s)
host_tick_rate                              167210971                       # Simulator tick rate (ticks/s)
host_mem_usage                                 660672                       # Number of bytes of host memory used
host_seconds                                   216.86                       # Real time elapsed on the host
sim_insts                                    62525833                       # Number of instructions simulated
sim_ops                                     110039685                       # Number of ops (including micro ops) simulated
system.clk_domain.voltage_domain.voltage            1                       # Voltage in Volts
system.clk_domain.clock                           500                       # Clock period in ticks
system.mem_ctrl.pwrStateResidencyTicks::UNDEFINED  36261606500                       # Cumulative time (in ticks) in various power states
system.mem_ctrl.bytes_read::.cpu.inst           51456                       # Number of bytes read from this memory
system.mem_ctrl.bytes_read::.cpu.data          561792                       # Number of bytes read from this memory
system.mem_ctrl.bytes_read::total              613248                       # Number of bytes read from this memory
system.mem_ctrl.bytes_inst_read::.cpu.inst        51456                       # Number of instructions bytes read from this memory
system.mem_ctrl.bytes_inst_read::total          51456                       # Number of instructions bytes read from this memory
system.mem_ctrl.num_reads::.cpu.inst              804                       # Number of read requests responded to by this memory
system.mem_ctrl.num_reads::.cpu.data             8778                       # Number of read requests responded to by this memory
system.mem_ctrl.num_reads::total                 9582                       # Number of read requests responded to by this memory
system.mem_ctrl.bw_read::.cpu.inst            1419022                       # Total read bandwidth from this memory (bytes/s)
system.mem_ctrl.bw_read::.cpu.data           15492750                       # Total read bandwidth from this memory (bytes/s)
system.mem_ctrl.bw_read::total               16911771                       # Total read bandwidth from this memory (bytes/s)
system.mem_ctrl.bw_inst_read::.cpu.inst       1419022                       # Instruction read bandwidth from this memory (bytes/s)
system.mem_ctrl.bw_inst_read::total           1419022                       # Instruction read bandwidth from this memory (bytes/s)
system.mem_ctrl.bw_total::.cpu.inst           1419022                       # Total bandwidth to/from this memory (bytes/s)
system.mem_ctrl.bw_total::.cpu.data          15492750                       # Total bandwidth to/from this memory (bytes/s)
system.mem_ctrl.bw_total::total              16911771                       # Total bandwidth to/from this memory (bytes/s)
system.mem_ctrl.avgPriority_.cpu.inst::samples       804.00                       # Average QoS priority value for accepted requests
system.mem_ctrl.avgPriority_.cpu.data::samples      8778.00                       # Average QoS priority value for accepted requests
system.mem_ctrl.priorityMinLatency       0.000000018750                       # per QoS priority minimum request to response latency (s)
system.mem_ctrl.priorityMaxLatency       0.000001102750                       # per QoS priority maximum request to response latency (s)
system.mem_ctrl.numReadWriteTurnArounds             0                       # Number of turnarounds from READ to WRITE
system.mem_ctrl.numWriteReadTurnArounds             0                       # Number of turnarounds from WRITE to READ
system.mem_ctrl.numStayReadState                23898                       # Number of times bus staying in READ state
system.mem_ctrl.numStayWriteState                   0                       # Number of times bus staying in WRITE state
system.mem_ctrl.readReqs                         9582                       # Number of read requests accepted
system.mem_ctrl.writeReqs                           0                       # Number of write requests accepted
system.mem_ctrl.readBursts                       9582                       # Number of DRAM read bursts, including those serviced by the write queue
system.mem_ctrl.writeBursts                         0                       # Number of DRAM write bursts, including those merged in the write queue
system.mem_ctrl.bytesReadDRAM                  613248                       # Total number of bytes read from DRAM
system.mem_ctrl.bytesReadWrQ                        0                       # Total number of bytes read from write queue
system.mem_ctrl.bytesWritten                        0                       # Total number of bytes written to DRAM
system.mem_ctrl.bytesReadSys                   613248                       # Total read bytes from the system interface side
system.mem_ctrl.bytesWrittenSys                     0                       # Total written bytes from the system interface side
system.mem_ctrl.servicedByWrQ                       0                       # Number of DRAM read bursts serviced by the write queue
system.mem_ctrl.mergedWrBursts                      0                       # Number of DRAM write bursts merged with an existing one
system.mem_ctrl.neitherReadNorWriteReqs             0                       # Number of requests that are neither read nor write
system.mem_ctrl.perBankRdBursts::0                789                       # Per bank write bursts
system.mem_ctrl.perBankRdBursts::1                622                       # Per bank write bursts
system.mem_ctrl.perBankRdBursts::2                552                       # Per bank write bursts
system.mem_ctrl.perBankRdBursts::3                528                       # Per bank write bursts
system.mem_ctrl.perBankRdBursts::4                542                       # Per bank write bursts
system.mem_ctrl.perBankRdBursts::5                526                       # Per bank write bursts
system.mem_ctrl.perBankRdBursts::6                587                       # Per bank write bursts
system.mem_ctrl.perBankRdBursts::7                621                       # Per bank write bursts
system.mem_ctrl.perBankRdBursts::8                542                       # Per bank write bursts
system.mem_ctrl.perBankRdBursts::9                566                       # Per bank write bursts
system.mem_ctrl.perBankRdBursts::10               659                       # Per bank write bursts
system.mem_ctrl.perBankRdBursts::11               615                       # Per bank write bursts
system.mem_ctrl.perBankRdBursts::12               572                       # Per bank write bursts
system.mem_ctrl.perBankRdBursts::13               580                       # Per bank write bursts
system.mem_ctrl.perBankRdBursts::14               627                       # Per bank write bursts
system.mem_ctrl.perBankRdBursts::15               654                       # Per bank write bursts
system.mem_ctrl.perBankWrBursts::0                  0                       # Per bank write bursts
system.mem_ctrl.perBankWrBursts::1                  0                       # Per bank write bursts
system.mem_ctrl.perBankWrBursts::2                  0                       # Per bank write bursts
system.mem_ctrl.perBankWrBursts::3                  0                       # Per bank write bursts
system.mem_ctrl.perBankWrBursts::4                  0                       # Per bank write bursts
system.mem_ctrl.perBankWrBursts::5                  0                       # Per bank write bursts
system.mem_ctrl.perBankWrBursts::6                  0                       # Per bank write bursts
system.mem_ctrl.perBankWrBursts::7                  0                       # Per bank write bursts
system.mem_ctrl.perBankWrBursts::8                  0                       # Per bank write bursts
system.mem_ctrl.perBankWrBursts::9                  0                       # Per bank write bursts
system.mem_ctrl.perBankWrBursts::10                 0                       # Per bank write bursts
system.mem_ctrl.perBankWrBursts::11                 0                       # Per bank write bursts
system.mem_ctrl.perBankWrBursts::12                 0                       # Per bank write bursts
system.mem_ctrl.perBankWrBursts::13                 0                       # Per bank write bursts
system.mem_ctrl.perBankWrBursts::14                 0                       # Per bank write bursts
system.mem_ctrl.perBankWrBursts::15                 0                       # Per bank write bursts
system.mem_ctrl.numRdRetry                          0                       # Number of times read queue was full causing retry
system.mem_ctrl.numWrRetry                          0                       # Number of times write queue was full causing retry
system.mem_ctrl.totGap                    36261522500                       # Total gap between requests
system.mem_ctrl.readPktSize::0                      0                       # Read request sizes (log2)
system.mem_ctrl.readPktSize::1                      0                       # Read request sizes (log2)
system.mem_ctrl.readPktSize::2                      0                       # Read request sizes (log2)
system.mem_ctrl.readPktSize::3                      0                       # Read request sizes (log2)
system.mem_ctrl.readPktSize::4                      0                       # Read request sizes (log2)
system.mem_ctrl.readPktSize::5                      0                       # Read request sizes (log2)
system.mem_ctrl.readPktSize::6                   9582                       # Read request sizes (log2)
system.mem_ctrl.writePktSize::0                     0                       # Write request sizes (log2)
system.mem_ctrl.writePktSize::1                     0                       # Write request sizes (log2)
system.mem_ctrl.writePktSize::2                     0                       # Write request sizes (log2)
system.mem_ctrl.writePktSize::3                     0                       # Write request sizes (log2)
system.mem_ctrl.writePktSize::4                     0                       # Write request sizes (log2)
system.mem_ctrl.writePktSize::5                     0                       # Write request sizes (log2)
system.mem_ctrl.writePktSize::6                     0                       # Write request sizes (log2)
system.mem_ctrl.rdQLenPdf::0                     9162                       # What read queue length does an incoming req see
system.mem_ctrl.rdQLenPdf::1                      309                       # What read queue length does an incoming req see
system.mem_ctrl.rdQLenPdf::2                       84                       # What read queue length does an incoming req see
system.mem_ctrl.rdQLenPdf::3                       21                       # What read queue length does an incoming req see
system.mem_ctrl.rdQLenPdf::4                        5                       # What read queue length does an incoming req see
system.mem_ctrl.rdQLenPdf::5                        1                       # What read queue length does an incoming req see
system.mem_ctrl.rdQLenPdf::6                        0                       # What read queue length does an incoming req see
system.mem_ctrl.rdQLenPdf::7                        0                       # What read queue length does an incoming req see
system.mem_ctrl.rdQLenPdf::8                        0                       # What read queue length does an incoming req see
system.mem_ctrl.rdQLenPdf::9                        0                       # What read queue length does an incoming req see
system.mem_ctrl.rdQLenPdf::10                       0                       # What read queue length does an incoming req see
system.mem_ctrl.rdQLenPdf::11                       0                       # What read queue length does an incoming req see
system.mem_ctrl.rdQLenPdf::12                       0                       # What read queue length does an incoming req see
system.mem_ctrl.rdQLenPdf::13                       0                       # What read queue length does an incoming req see
system.mem_ctrl.rdQLenPdf::14                       0                       # What read queue length does an incoming req see
system.mem_ctrl.rdQLenPdf::15                       0                       # What read queue length does an incoming req see
system.mem_ctrl.rdQLenPdf::16                       0                       # What read queue length does an incoming req see
system.mem_ctrl.rdQLenPdf::17                       0                       # What read queue length does an incoming req see
system.mem_ctrl.rdQLenPdf::18                       0                       # What read queue length does an incoming req see
system.mem_ctrl.rdQLenPdf::19                       0                       # What read queue length does an incoming req see
system.mem_ctrl.rdQLenPdf::20                       0                       # What read queue length does an incoming req see
system.mem_ctrl.rdQLenPdf::21                       0                       # What read queue length does an incoming req see
system.mem_ctrl.rdQLenPdf::22                       0                       # What read queue length does an incoming req see
system.mem_ctrl.rdQLenPdf::23                       0                       # What read queue length does an incoming req see
system.mem_ctrl.rdQLenPdf::24                       0                       # What read queue length does an incoming req see
system.mem_ctrl.rdQLenPdf::25                       0                       # What read queue length does an incoming req see
system.mem_ctrl.rdQLenPdf::26                       0                       # What read queue length does an incoming req see
system.mem_ctrl.rdQLenPdf::27                       0                       # What read queue length does an incoming req see
system.mem_ctrl.rdQLenPdf::28                       0                       # What read queue length does an incoming req see
system.mem_ctrl.rdQLenPdf::29                       0                       # What read queue length does an incoming req see
system.mem_ctrl.rdQLenPdf::30                       0                       # What read queue length does an incoming req see
system.mem_ctrl.rdQLenPdf::31                       0                       # What read queue length does an incoming req see
system.mem_ctrl.wrQLenPdf::0                        0                       # What write queue length does an incoming req see
system.mem_ctrl.wrQLenPdf::1                        0                       # What write queue length does an incoming req see
system.mem_ctrl.wrQLenPdf::2                        0                       # What write queue length does an incoming req see
system.mem_ctrl.wrQLenPdf::3                        0                       # What write queue length does an incoming req see
system.mem_ctrl.wrQLenPdf::4                        0                       # What write queue length does an incoming req see
system.mem_ctrl.wrQLenPdf::5                        0                       # What write queue length does an incoming req see
system.mem_ctrl.wrQLenPdf::6                        0                       # What write queue length does an incoming req see
system.mem_ctrl.wrQLenPdf::7                        0                       # What write queue length does an incoming req see
system.mem_ctrl.wrQLenPdf::8                        0                       # What write queue length does an incoming req see
system.mem_ctrl.wrQLenPdf::9                        0                       # What write queue length does an incoming req see
system.mem_ctrl.wrQLenPdf::10                       0                       # What write queue length does an incoming req see
system.mem_ctrl.wrQLenPdf::11                       0                       # What write queue length does an incoming req see
system.mem_ctrl.wrQLenPdf::12                       0                       # What write queue length does an incoming req see
system.mem_ctrl.wrQLenPdf::13                       0                       # What write queue length does an incoming req see
system.mem_ctrl.wrQLenPdf::14                       0                       # What write queue length does an incoming req see
system.mem_ctrl.wrQLenPdf::15                       0                       # What write queue length does an incoming req see
system.mem_ctrl.wrQLenPdf::16                       0                       # What write queue length does an incoming req see
system.mem_ctrl.wrQLenPdf::17                       0                       # What write queue length does an incoming req see
system.mem_ctrl.wrQLenPdf::18                       0                       # What write queue length does an incoming req see
system.mem_ctrl.wrQLenPdf::19                       0                       # What write queue length does an incoming req see
system.mem_ctrl.wrQLenPdf::20                       0                       # What write queue length does an incoming req see
system.mem_ctrl.wrQLenPdf::21                       0                       # What write queue length does an incoming req see
system.mem_ctrl.wrQLenPdf::22                       0                       # What write queue length does an incoming req see
system.mem_ctrl.wrQLenPdf::23                       0                       # What write queue length does an incoming req see
system.mem_ctrl.wrQLenPdf::24                       0                       # What write queue length does an incoming req see
system.mem_ctrl.wrQLenPdf::25                       0                       # What write queue length does an incoming req see
system.mem_ctrl.wrQLenPdf::26                       0                       # What write queue length does an incoming req see
system.mem_ctrl.wrQLenPdf::27                       0                       # What write queue length does an incoming req see
system.mem_ctrl.wrQLenPdf::28                       0                       # What write queue length does an incoming req see
system.mem_ctrl.wrQLenPdf::29                       0                       # What write queue length does an incoming req see
system.mem_ctrl.wrQLenPdf::30                       0                       # What write queue length does an incoming req see
system.mem_ctrl.wrQLenPdf::31                       0                       # What write queue length does an incoming req see
system.mem_ctrl.wrQLenPdf::32                       0                       # What write queue length does an incoming req see
system.mem_ctrl.wrQLenPdf::33                       0                       # What write queue length does an incoming req see
system.mem_ctrl.wrQLenPdf::34                       0                       # What write queue length does an incoming req see
system.mem_ctrl.wrQLenPdf::35                       0                       # What write queue length does an incoming req see
system.mem_ctrl.wrQLenPdf::36                       0                       # What write queue length does an incoming req see
system.mem_ctrl.wrQLenPdf::37                       0                       # What write queue length does an incoming req see
system.mem_ctrl.wrQLenPdf::38                       0                       # What write queue length does an incoming req see
system.mem_ctrl.wrQLenPdf::39                       0                       # What write queue length does an incoming req see
system.mem_ctrl.wrQLenPdf::40                       0                       # What write queue length does an incoming req see
system.mem_ctrl.wrQLenPdf::41                       0                       # What write queue length does an incoming req see
system.mem_ctrl.wrQLenPdf::42                       0                       # What write queue length does an incoming req see
system.mem_ctrl.wrQLenPdf::43                       0                       # What write queue length does an incoming req see
system.mem_ctrl.wrQLenPdf::44                       0                       # What write queue length does an incoming req see
system.mem_ctrl.wrQLenPdf::45                       0                       # What write queue length does an incoming req see
system.mem_ctrl.wrQLenPdf::46                       0                       # What write queue length does an incoming req see
system.mem_ctrl.wrQLenPdf::47                       0                       # What write queue length does an incoming req see
system.mem_ctrl.wrQLenPdf::48                       0                       # What write queue length does an incoming req see
system.mem_ctrl.wrQLenPdf::49                       0                       # What write queue length does an incoming req see
system.mem_ctrl.wrQLenPdf::50                       0                       # What write queue length does an incoming req see
system.mem_ctrl.wrQLenPdf::51                       0                       # What write queue length does an incoming req see
system.mem_ctrl.wrQLenPdf::52                       0                       # What write queue length does an incoming req see
system.mem_ctrl.wrQLenPdf::53                       0                       # What write queue length does an incoming req see
system.mem_ctrl.wrQLenPdf::54                       0                       # What write queue length does an incoming req see
system.mem_ctrl.wrQLenPdf::55                       0                       # What write queue length does an incoming req see
system.mem_ctrl.wrQLenPdf::56                       0                       # What write queue length does an incoming req see
system.mem_ctrl.wrQLenPdf::57                       0                       # What write queue length does an incoming req see
system.mem_ctrl.wrQLenPdf::58                       0                       # What write queue length does an incoming req see
system.mem_ctrl.wrQLenPdf::59                       0                       # What write queue length does an incoming req see
system.mem_ctrl.wrQLenPdf::60                       0                       # What write queue length does an incoming req see
system.mem_ctrl.wrQLenPdf::61                       0                       # What write queue length does an incoming req see
system.mem_ctrl.wrQLenPdf::62                       0                       # What write queue length does an incoming req see
system.mem_ctrl.wrQLenPdf::63                       0                       # What write queue length does an incoming req see
system.mem_ctrl.bytesPerActivate::samples         5085                       # Bytes accessed per row activation
system.mem_ctrl.bytesPerActivate::mean     120.221829                       # Bytes accessed per row activation
system.mem_ctrl.bytesPerActivate::gmean    106.651575                       # Bytes accessed per row activation
system.mem_ctrl.bytesPerActivate::stdev     89.321956                       # Bytes accessed per row activation
system.mem_ctrl.bytesPerActivate::0-127          1674     32.92%     32.92% # Bytes accessed per row activation
system.mem_ctrl.bytesPerActivate::128-255         3246     63.83%     96.76% # Bytes accessed per row activation
system.mem_ctrl.bytesPerActivate::256-383           30      0.59%     97.35% # Bytes accessed per row activation
system.mem_ctrl.bytesPerActivate::384-511           43      0.85%     98.19% # Bytes accessed per row activation
system.mem_ctrl.bytesPerActivate::512-639           59      1.16%     99.35% # Bytes accessed per row activation
system.mem_ctrl.bytesPerActivate::640-767            7      0.14%     99.49% # Bytes accessed per row activation
system.mem_ctrl.bytesPerActivate::768-895            5      0.10%     99.59% # Bytes accessed per row activation
system.mem_ctrl.bytesPerActivate::896-1023            5      0.10%     99.69% # Bytes accessed per row activation
system.mem_ctrl.bytesPerActivate::1024-1151           16      0.31%    100.00% # Bytes accessed per row activation
system.mem_ctrl.bytesPerActivate::total          5085                       # Bytes accessed per row activation
system.mem_ctrl.masterReadBytes::.cpu.inst        51456                       # Per-master bytes read from memory
system.mem_ctrl.masterReadBytes::.cpu.data       561792                       # Per-master bytes read from memory
system.mem_ctrl.masterReadRate::.cpu.inst 1419021.520737091312                       # Per-master bytes read from memory rate (Bytes/sec)
system.mem_ctrl.masterReadRate::.cpu.data 15492749.886853467673                       # Per-master bytes read from memory rate (Bytes/sec)
system.mem_ctrl.masterReadAccesses::.cpu.inst          804                       # Per-master read serviced memory accesses
system.mem_ctrl.masterReadAccesses::.cpu.data         8778                       # Per-master read serviced memory accesses
system.mem_ctrl.masterReadTotalLat::.cpu.inst     28637250                       # Per-master read total memory access latency
system.mem_ctrl.masterReadTotalLat::.cpu.data    357477500                       # Per-master read total memory access latency
system.mem_ctrl.masterReadAvgLat::.cpu.inst     35618.47                       # Per-master read average memory access latency
system.mem_ctrl.masterReadAvgLat::.cpu.data     40724.25                       # Per-master read average memory access latency
system.mem_ctrl.totQLat                     206452250                       # Total ticks spent queuing
system.mem_ctrl.totMemAccLat                386114750                       # Total ticks spent from burst creation until serviced by the DRAM
system.mem_ctrl.totBusLat                    47910000                       # Total ticks spent in databus transfers
system.mem_ctrl.avgQLat                      21545.84                       # Average queueing delay per DRAM burst
system.mem_ctrl.avgBusLat                     5000.00                       # Average bus latency per DRAM burst
system.mem_ctrl.avgMemAccLat                 40295.84                       # Average memory access latency per DRAM burst
system.mem_ctrl.avgRdBW                         16.91                       # Average DRAM read bandwidth in MiByte/s
system.mem_ctrl.avgWrBW                          0.00                       # Average achieved write bandwidth in MiByte/s
system.mem_ctrl.avgRdBWSys                      16.91                       # Average system read bandwidth in MiByte/s
system.mem_ctrl.avgWrBWSys                       0.00                       # Average system write bandwidth in MiByte/s
system.mem_ctrl.peakBW                       12800.00                       # Theoretical peak bandwidth in MiByte/s
system.mem_ctrl.busUtil                          0.13                       # Data bus utilization in percentage
system.mem_ctrl.busUtilRead                      0.13                       # Data bus utilization in percentage for reads
system.mem_ctrl.busUtilWrite                     0.00                       # Data bus utilization in percentage for writes
system.mem_ctrl.avgRdQLen                        1.00                       # Average read queue length when enqueuing
system.mem_ctrl.avgWrQLen                        0.00                       # Average write queue length when enqueuing
system.mem_ctrl.readRowHits                      4487                       # Number of row buffer hits during reads
system.mem_ctrl.writeRowHits                        0                       # Number of row buffer hits during writes
system.mem_ctrl.readRowHitRate                  46.83                       # Row buffer hit rate for reads
system.mem_ctrl.writeRowHitRate                   nan                       # Row buffer hit rate for writes
system.mem_ctrl.avgGap                     3784337.56                       # Average gap between requests
system.mem_ctrl.pageHitRate                     46.83                       # Row buffer hit rate, read and write combined
system.mem_ctrl_0.actEnergy                  18128460                       # Energy for activate commands per rank (pJ)
system.mem_ctrl_0.preEnergy                   9612735                       # Energy for precharge commands per rank (pJ)
system.mem_ctrl_0.readEnergy                 34036380                       # Energy for read commands per rank (pJ)
system.mem_ctrl_0.writeEnergy                       0                       # Energy for write commands per rank (pJ)
system.mem_ctrl_0.refreshEnergy          1453008960.000000                       # Energy for refresh commands per rank (pJ)
system.mem_ctrl_0.actBackEnergy             335043720                       # Energy for active background per rank (pJ)
system.mem_ctrl_0.preBackEnergy              32858400                       # Energy for precharge background per rank (pJ)
system.mem_ctrl_0.actPowerDownEnergy       5727161640                       # Energy for active power-down per rank (pJ)
system.mem_ctrl_0.prePowerDownEnergy       1934395680                       # Energy for precharge power-down per rank (pJ)
system.mem_ctrl_0.selfRefreshEnergy        4295871360                       # Energy for self refresh per rank (pJ)
system.mem_ctrl_0.totalEnergy             13840117335                       # Total energy per rank (pJ)
system.mem_ctrl_0.averagePower             381.674136                       # Core power per rank (mW)
system.mem_ctrl_0.totalIdleTime           35441753500                       # Total Idle time Per DRAM Rank
system.mem_ctrl_0.memoryStateTime::IDLE      20676500                       # Time in different power states
system.mem_ctrl_0.memoryStateTime::REF      614640000                       # Time in different power states
system.mem_ctrl_0.memoryStateTime::SREF   17844242000                       # Time in different power states
system.mem_ctrl_0.memoryStateTime::PRE_PDN   5037566500                       # Time in different power states
system.mem_ctrl_0.memoryStateTime::ACT      184495750                       # Time in different power states
system.mem_ctrl_0.memoryStateTime::ACT_PDN  12559985750                       # Time in different power states
system.mem_ctrl_1.actEnergy                  18249840                       # Energy for activate commands per rank (pJ)
system.mem_ctrl_1.preEnergy                   9684840                       # Energy for precharge commands per rank (pJ)
system.mem_ctrl_1.readEnergy                 34379100                       # Energy for read commands per rank (pJ)
system.mem_ctrl_1.writeEnergy                       0                       # Energy for write commands per rank (pJ)
system.mem_ctrl_1.refreshEnergy          1480667760.000000                       # Energy for refresh commands per rank (pJ)
system.mem_ctrl_1.actBackEnergy             339822030                       # Energy for active background per rank (pJ)
system.mem_ctrl_1.preBackEnergy              34927680                       # Energy for precharge background per rank (pJ)
system.mem_ctrl_1.actPowerDownEnergy       5739833880                       # Energy for active power-down per rank (pJ)
system.mem_ctrl_1.prePowerDownEnergy       2054176800                       # Energy for precharge power-down per rank (pJ)
system.mem_ctrl_1.selfRefreshEnergy        4219918440                       # Energy for self refresh per rank (pJ)
system.mem_ctrl_1.totalEnergy             13931809590                       # Total energy per rank (pJ)
system.mem_ctrl_1.averagePower             384.202768                       # Core power per rank (mW)
system.mem_ctrl_1.totalIdleTime           35424850250                       # Total Idle time Per DRAM Rank
system.mem_ctrl_1.memoryStateTime::IDLE      25624000                       # Time in different power states
system.mem_ctrl_1.memoryStateTime::REF      626340000                       # Time in different power states
system.mem_ctrl_1.memoryStateTime::SREF   17488321750                       # Time in different power states
system.mem_ctrl_1.memoryStateTime::PRE_PDN   5349577500                       # Time in different power states
system.mem_ctrl_1.memoryStateTime::ACT      184587500                       # Time in different power states
system.mem_ctrl_1.memoryStateTime::ACT_PDN  12587155750                       # Time in different power states
system.pwrStateResidencyTicks::UNDEFINED  36261606500                       # Cumulative time (in ticks) in various power states
system.cpu.branchPred.lookups                13192599                       # Number of BP lookups
system.cpu.branchPred.condPredicted          13192599                       # Number of conditional branches predicted
system.cpu.branchPred.condIncorrect            264732                       # Number of conditional branches incorrect
system.cpu.branchPred.BTBLookups             12028870                       # Number of BTB lookups
system.cpu.branchPred.BTBHits                       0                       # Number of BTB hits
system.cpu.branchPred.BTBCorrect                    0                       # Number of correct BTB predictions (this stat may not work properly.
system.cpu.branchPred.BTBHitPct              0.000000                       # BTB Hit Percentage
system.cpu.branchPred.usedRAS                  417799                       # Number of times the RAS was used to get a target.
system.cpu.branchPred.RASInCorrect                277                       # Number of incorrect RAS predictions.
system.cpu.branchPred.indirectLookups        12028870                       # Number of indirect predictor lookups.
system.cpu.branchPred.indirectHits            5861503                       # Number of indirect target hits.
system.cpu.branchPred.indirectMisses          6167367                       # Number of indirect misses.
system.cpu.branchPredindirectMispredicted       263725                       # Number of mispredicted indirect branches.
system.cpu.dtb.walker.pwrStateResidencyTicks::UNDEFINED  36261606500                       # Cumulative time (in ticks) in various power states
system.cpu.dtb.rdAccesses                    20095523                       # TLB accesses on read requests
system.cpu.dtb.wrAccesses                     8911964                       # TLB accesses on write requests
system.cpu.dtb.rdMisses                           477                       # TLB misses on read requests
system.cpu.dtb.wrMisses                           331                       # TLB misses on write requests
system.cpu.apic_clk_domain.clock                 8000                       # Clock period in ticks
system.cpu.interrupts.pwrStateResidencyTicks::UNDEFINED  36261606500                       # Cumulative time (in ticks) in various power states
system.cpu.itb.walker.pwrStateResidencyTicks::UNDEFINED  36261606500                       # Cumulative time (in ticks) in various power states
system.cpu.itb.rdAccesses                           0                       # TLB accesses on read requests
system.cpu.itb.wrAccesses                     9634743                       # TLB accesses on write requests
system.cpu.itb.rdMisses                             0                       # TLB misses on read requests
system.cpu.itb.wrMisses                           198                       # TLB misses on write requests
system.cpu.workload.numSyscalls                    36                       # Number of system calls
system.cpu.pwrStateResidencyTicks::ON     36261606500                       # Cumulative time (in ticks) in various power states
system.cpu.numCycles                         72523214                       # number of cpu cycles simulated
system.cpu.numWorkItemsStarted                      0                       # number of work items this cpu started
system.cpu.numWorkItemsCompleted                    0                       # number of work items this cpu completed
system.cpu.fetch.icacheStallCycles             312038                       # Number of cycles fetch is stalled on an Icache miss
system.cpu.fetch.Insts                       74751337                       # Number of instructions fetch has processed
system.cpu.fetch.Branches                    13192599                       # Number of branches that fetch encountered
system.cpu.fetch.predictedBranches            6279302                       # Number of branches that fetch has predicted taken
system.cpu.fetch.Cycles                      71907644                       # Number of cycles fetch has run and was not squashing or blocked
system.cpu.fetch.SquashCycles                  530682                       # Number of cycles fetch has spent squashing
system.cpu.fetch.MiscStallCycles                  103                       # Number of cycles fetch has spent waiting on interrupts, or bad addresses, or out of MSHRs
system.cpu.fetch.PendingTrapStallCycles          1416                       # Number of stall cycles due to pending traps
system.cpu.fetch.PendingQuiesceStallCycles           13                       # Number of stall cycles due to pending quiesce instructions
system.cpu.fetch.IcacheWaitRetryStallCycles            2                       # Number of stall cycles due to full MSHR
system.cpu.fetch.CacheLines                   9634604                       # Number of cache lines fetched
system.cpu.fetch.IcacheSquashes                   572                       # Number of outstanding Icache misses that were squashed
system.cpu.fetch.rateDist::samples           72486557                       # Number of instructions fetched each cycle (Total)
system.cpu.fetch.rateDist::mean              1.833859                       # Number of instructions fetched each cycle (Total)
system.cpu.fetch.rateDist::stdev             1.868934                       # Number of instructions fetched each cycle (Total)
system.cpu.fetch.rateDist::underflows               0      0.00%      0.00% # Number of instructions fetched each cycle (Total)
system.cpu.fetch.rateDist::0                 34229942     47.22%     47.22% # Number of instructions fetched each cycle (Total)
system.cpu.fetch.rateDist::1                  3056336      4.22%     51.44% # Number of instructions fetched each cycle (Total)
system.cpu.fetch.rateDist::2                  3597382      4.96%     56.40% # Number of instructions fetched each cycle (Total)
system.cpu.fetch.rateDist::3                  3732554      5.15%     61.55% # Number of instructions fetched each cycle (Total)
system.cpu.fetch.rateDist::4                 27870343     38.45%    100.00% # Number of instructions fetched each cycle (Total)
system.cpu.fetch.rateDist::overflows                0      0.00%    100.00% # Number of instructions fetched each cycle (Total)
system.cpu.fetch.rateDist::min_value                0                       # Number of instructions fetched each cycle (Total)
system.cpu.fetch.rateDist::max_value                4                       # Number of instructions fetched each cycle (Total)
system.cpu.fetch.rateDist::total             72486557                       # Number of instructions fetched each cycle (Total)
system.cpu.fetch.branchRate                  0.181909                       # Number of branch fetches per cycle
system.cpu.fetch.rate                        1.030723                       # Number of inst fetches per cycle
system.cpu.decode.IdleCycles                  7673297                       # Number of cycles decode is idle
system.cpu.decode.BlockedCycles              32661385                       # Number of cycles decode is blocked
system.cpu.decode.RunCycles                  21475188                       # Number of cycles decode is running
system.cpu.decode.UnblockCycles              10411346                       # Number of cycles decode is unblocking
system.cpu.decode.SquashCycles                 265341                       # Number of cycles decode is squashing
system.cpu.decode.DecodedInsts              123573656                       # Number of instructions handled by decode
system.cpu.decode.SquashedInsts               1134888                       # Number of squashed instructions handled by decode
system.cpu.rename.SquashCycles                 265341                       # Number of cycles rename is squashing
system.cpu.rename.IdleCycles                 14282350                       # Number of cycles rename is idle
system.cpu.rename.BlockCycles                12837157                       # Number of cycles rename is blocking
system.cpu.rename.serializeStallCycles           2572                       # count of cycles rename stalled for serializing inst
system.cpu.rename.RunCycles                  24731631                       # Number of cycles rename is running
system.cpu.rename.UnblockCycles              20367506                       # Number of cycles rename is unblocking
system.cpu.rename.RenamedInsts              122062668                       # Number of instructions processed by rename
system.cpu.rename.SquashedInsts                458245                       # Number of squashed instructions processed by rename
system.cpu.rename.ROBFullEvents                   102                       # Number of times rename has blocked due to ROB full
system.cpu.rename.IQFullEvents               13148667                       # Number of times rename has blocked due to IQ full
system.cpu.rename.SQFullEvents                3875949                       # Number of times rename has blocked due to SQ full
system.cpu.rename.FullRegisterEvents           201584                       # Number of times there has been no free registers
system.cpu.rename.RenamedOperands           144020159                       # Number of destination operands rename has renamed
system.cpu.rename.RenameLookups             299056134                       # Number of register rename lookups that rename has made
system.cpu.rename.int_rename_lookups        187650598                       # Number of integer rename lookups
system.cpu.rename.fp_rename_lookups            266428                       # Number of floating rename lookups
system.cpu.rename.CommittedMaps             130921918                       # Number of HB maps that are committed
system.cpu.rename.UndoneMaps                 13098241                       # Number of HB maps that are undone due to squashing
system.cpu.rename.serializingInsts                 64                       # count of serializing insts renamed
system.cpu.rename.tempSerializingInsts             61                       # count of temporary serializing insts renamed
system.cpu.rename.skidInsts                  33501358                       # count of insts added to the skid buffer
system.cpu.memDep0.insertedLoads             20652178                       # Number of loads inserted to the mem dependence unit.
system.cpu.memDep0.insertedStores             9541717                       # Number of stores inserted to the mem dependence unit.
system.cpu.memDep0.conflictingLoads           6564906                       # Number of conflicting loads.
system.cpu.memDep0.conflictingStores          1589085                       # Number of conflicting stores.
system.cpu.iq.iqInstsAdded                  120415069                       # Number of instructions added to the IQ (excludes non-spec)
system.cpu.iq.iqNonSpecInstsAdded                 321                       # Number of non-speculative instructions added to the IQ
system.cpu.iq.iqInstsIssued                 115787446                       # Number of instructions issued
system.cpu.iq.iqSquashedInstsIssued           1497076                       # Number of squashed instructions issued
system.cpu.iq.iqSquashedInstsExamined        10375704                       # Number of squashed instructions iterated over during squash; mainly for profiling
system.cpu.iq.iqSquashedOperandsExamined     14759071                       # Number of squashed operands that are examined and possibly removed from graph
system.cpu.iq.iqSquashedNonSpecRemoved            285                       # Number of squashed non-spec instructions that were removed
system.cpu.iq.issued_per_cycle::samples      72486557                       # Number of insts issued each cycle
system.cpu.iq.issued_per_cycle::mean         1.597364                       # Number of insts issued each cycle
system.cpu.iq.issued_per_cycle::stdev        1.064049                       # Number of insts issued each cycle
system.cpu.iq.issued_per_cycle::underflows            0      0.00%      0.00% # Number of insts issued each cycle
system.cpu.iq.issued_per_cycle::0            15717921     21.68%     21.68% # Number of insts issued each cycle
system.cpu.iq.issued_per_cycle::1            14156385     19.53%     41.21% # Number of insts issued each cycle
system.cpu.iq.issued_per_cycle::2            26398589     36.42%     77.63% # Number of insts issued each cycle
system.cpu.iq.issued_per_cycle::3            16020765     22.10%     99.73% # Number of insts issued each cycle
system.cpu.iq.issued_per_cycle::4              192897      0.27%    100.00% # Number of insts issued each cycle
system.cpu.iq.issued_per_cycle::overflows            0      0.00%    100.00% # Number of insts issued each cycle
system.cpu.iq.issued_per_cycle::min_value            0                       # Number of insts issued each cycle
system.cpu.iq.issued_per_cycle::max_value            4                       # Number of insts issued each cycle
system.cpu.iq.issued_per_cycle::total        72486557                       # Number of insts issued each cycle
system.cpu.iq.fu_full::No_OpClass                   0      0.00%      0.00% # attempts to use FU when none available
system.cpu.iq.fu_full::IntAlu                27417656     69.44%     69.44% # attempts to use FU when none available
system.cpu.iq.fu_full::IntMult                      0      0.00%     69.44% # attempts to use FU when none available
system.cpu.iq.fu_full::IntDiv                       0      0.00%     69.44% # attempts to use FU when none available
system.cpu.iq.fu_full::FloatAdd                     0      0.00%     69.44% # attempts to use FU when none available
system.cpu.iq.fu_full::FloatCmp                     0      0.00%     69.44% # attempts to use FU when none available
system.cpu.iq.fu_full::FloatCvt                     0      0.00%     69.44% # attempts to use FU when none available
system.cpu.iq.fu_full::FloatMult                    0      0.00%     69.44% # attempts to use FU when none available
system.cpu.iq.fu_full::FloatMultAcc                 0      0.00%     69.44% # attempts to use FU when none available
system.cpu.iq.fu_full::FloatDiv                     0      0.00%     69.44% # attempts to use FU when none available
system.cpu.iq.fu_full::FloatMisc                    0      0.00%     69.44% # attempts to use FU when none available
system.cpu.iq.fu_full::FloatSqrt                    0      0.00%     69.44% # attempts to use FU when none available
system.cpu.iq.fu_full::SimdAdd                    265      0.00%     69.44% # attempts to use FU when none available
system.cpu.iq.fu_full::SimdAddAcc                   0      0.00%     69.44% # attempts to use FU when none available
system.cpu.iq.fu_full::SimdAlu                     70      0.00%     69.44% # attempts to use FU when none available
system.cpu.iq.fu_full::SimdCmp                      0      0.00%     69.44% # attempts to use FU when none available
system.cpu.iq.fu_full::SimdCvt                     64      0.00%     69.44% # attempts to use FU when none available
system.cpu.iq.fu_full::SimdMisc                   146      0.00%     69.44% # attempts to use FU when none available
system.cpu.iq.fu_full::SimdMult                     0      0.00%     69.44% # attempts to use FU when none available
system.cpu.iq.fu_full::SimdMultAcc                  0      0.00%     69.44% # attempts to use FU when none available
system.cpu.iq.fu_full::SimdShift                  124      0.00%     69.44% # attempts to use FU when none available
system.cpu.iq.fu_full::SimdShiftAcc                 0      0.00%     69.44% # attempts to use FU when none available
system.cpu.iq.fu_full::SimdSqrt                     0      0.00%     69.44% # attempts to use FU when none available
system.cpu.iq.fu_full::SimdFloatAdd                 0      0.00%     69.44% # attempts to use FU when none available
system.cpu.iq.fu_full::SimdFloatAlu                 0      0.00%     69.44% # attempts to use FU when none available
system.cpu.iq.fu_full::SimdFloatCmp                 0      0.00%     69.44% # attempts to use FU when none available
system.cpu.iq.fu_full::SimdFloatCvt                 0      0.00%     69.44% # attempts to use FU when none available
system.cpu.iq.fu_full::SimdFloatDiv                 0      0.00%     69.44% # attempts to use FU when none available
system.cpu.iq.fu_full::SimdFloatMisc                0      0.00%     69.44% # attempts to use FU when none available
system.cpu.iq.fu_full::SimdFloatMult                0      0.00%     69.44% # attempts to use FU when none available
system.cpu.iq.fu_full::SimdFloatMultAcc             0      0.00%     69.44% # attempts to use FU when none available
system.cpu.iq.fu_full::SimdFloatSqrt                0      0.00%     69.44% # attempts to use FU when none available
system.cpu.iq.fu_full::SimdAes                      0      0.00%     69.44% # attempts to use FU when none available
system.cpu.iq.fu_full::SimdAesMix                   0      0.00%     69.44% # attempts to use FU when none available
system.cpu.iq.fu_full::SimdSha1Hash                 0      0.00%     69.44% # attempts to use FU when none available
system.cpu.iq.fu_full::SimdSha1Hash2                0      0.00%     69.44% # attempts to use FU when none available
system.cpu.iq.fu_full::SimdSha256Hash               0      0.00%     69.44% # attempts to use FU when none available
system.cpu.iq.fu_full::SimdSha256Hash2              0      0.00%     69.44% # attempts to use FU when none available
system.cpu.iq.fu_full::SimdShaSigma2                0      0.00%     69.44% # attempts to use FU when none available
system.cpu.iq.fu_full::SimdShaSigma3                0      0.00%     69.44% # attempts to use FU when none available
system.cpu.iq.fu_full::MemRead               10040684     25.43%     94.87% # attempts to use FU when none available
system.cpu.iq.fu_full::MemWrite               2023639      5.13%    100.00% # attempts to use FU when none available
system.cpu.iq.fu_full::FloatMemRead                 0      0.00%    100.00% # attempts to use FU when none available
system.cpu.iq.fu_full::FloatMemWrite                0      0.00%    100.00% # attempts to use FU when none available
system.cpu.iq.fu_full::IprAccess                    0      0.00%    100.00% # attempts to use FU when none available
system.cpu.iq.fu_full::InstPrefetch                 0      0.00%    100.00% # attempts to use FU when none available
system.cpu.iq.FU_type_0::No_OpClass            241416      0.21%      0.21% # Type of FU issued
system.cpu.iq.FU_type_0::IntAlu              85527458     73.87%     74.07% # Type of FU issued
system.cpu.iq.FU_type_0::IntMult               646198      0.56%     74.63% # Type of FU issued
system.cpu.iq.FU_type_0::IntDiv                    31      0.00%     74.63% # Type of FU issued
system.cpu.iq.FU_type_0::FloatAdd               65557      0.06%     74.69% # Type of FU issued
system.cpu.iq.FU_type_0::FloatCmp                   0      0.00%     74.69% # Type of FU issued
system.cpu.iq.FU_type_0::FloatCvt                   0      0.00%     74.69% # Type of FU issued
system.cpu.iq.FU_type_0::FloatMult                  0      0.00%     74.69% # Type of FU issued
system.cpu.iq.FU_type_0::FloatMultAcc               0      0.00%     74.69% # Type of FU issued
system.cpu.iq.FU_type_0::FloatDiv                   0      0.00%     74.69% # Type of FU issued
system.cpu.iq.FU_type_0::FloatMisc                  0      0.00%     74.69% # Type of FU issued
system.cpu.iq.FU_type_0::FloatSqrt                  0      0.00%     74.69% # Type of FU issued
system.cpu.iq.FU_type_0::SimdAdd                  377      0.00%     74.69% # Type of FU issued
system.cpu.iq.FU_type_0::SimdAddAcc                 0      0.00%     74.69% # Type of FU issued
system.cpu.iq.FU_type_0::SimdAlu                   99      0.00%     74.69% # Type of FU issued
system.cpu.iq.FU_type_0::SimdCmp                    0      0.00%     74.69% # Type of FU issued
system.cpu.iq.FU_type_0::SimdCvt                  148      0.00%     74.69% # Type of FU issued
system.cpu.iq.FU_type_0::SimdMisc                 258      0.00%     74.69% # Type of FU issued
system.cpu.iq.FU_type_0::SimdMult                   0      0.00%     74.69% # Type of FU issued
system.cpu.iq.FU_type_0::SimdMultAcc                0      0.00%     74.69% # Type of FU issued
system.cpu.iq.FU_type_0::SimdShift                186      0.00%     74.69% # Type of FU issued
system.cpu.iq.FU_type_0::SimdShiftAcc               0      0.00%     74.69% # Type of FU issued
system.cpu.iq.FU_type_0::SimdSqrt                   0      0.00%     74.69% # Type of FU issued
system.cpu.iq.FU_type_0::SimdFloatAdd               0      0.00%     74.69% # Type of FU issued
system.cpu.iq.FU_type_0::SimdFloatAlu               0      0.00%     74.69% # Type of FU issued
system.cpu.iq.FU_type_0::SimdFloatCmp               0      0.00%     74.69% # Type of FU issued
system.cpu.iq.FU_type_0::SimdFloatCvt               0      0.00%     74.69% # Type of FU issued
system.cpu.iq.FU_type_0::SimdFloatDiv               0      0.00%     74.69% # Type of FU issued
system.cpu.iq.FU_type_0::SimdFloatMisc              0      0.00%     74.69% # Type of FU issued
system.cpu.iq.FU_type_0::SimdFloatMult              0      0.00%     74.69% # Type of FU issued
system.cpu.iq.FU_type_0::SimdFloatMultAcc            0      0.00%     74.69% # Type of FU issued
system.cpu.iq.FU_type_0::SimdFloatSqrt              0      0.00%     74.69% # Type of FU issued
system.cpu.iq.FU_type_0::SimdAes                    0      0.00%     74.69% # Type of FU issued
system.cpu.iq.FU_type_0::SimdAesMix                 0      0.00%     74.69% # Type of FU issued
system.cpu.iq.FU_type_0::SimdSha1Hash               0      0.00%     74.69% # Type of FU issued
system.cpu.iq.FU_type_0::SimdSha1Hash2              0      0.00%     74.69% # Type of FU issued
system.cpu.iq.FU_type_0::SimdSha256Hash             0      0.00%     74.69% # Type of FU issued
system.cpu.iq.FU_type_0::SimdSha256Hash2            0      0.00%     74.69% # Type of FU issued
system.cpu.iq.FU_type_0::SimdShaSigma2              0      0.00%     74.69% # Type of FU issued
system.cpu.iq.FU_type_0::SimdShaSigma3              0      0.00%     74.69% # Type of FU issued
system.cpu.iq.FU_type_0::MemRead             19995312     17.27%     91.96% # Type of FU issued
system.cpu.iq.FU_type_0::MemWrite             8785418      7.59%     99.55% # Type of FU issued
system.cpu.iq.FU_type_0::FloatMemRead          262302      0.23%     99.77% # Type of FU issued
system.cpu.iq.FU_type_0::FloatMemWrite         262686      0.23%    100.00% # Type of FU issued
system.cpu.iq.FU_type_0::IprAccess                  0      0.00%    100.00% # Type of FU issued
system.cpu.iq.FU_type_0::InstPrefetch               0      0.00%    100.00% # Type of FU issued
system.cpu.iq.FU_type_0::total              115787446                       # Type of FU issued
system.cpu.iq.rate                           1.596557                       # Inst issue rate
system.cpu.iq.fu_busy_cnt                    39482648                       # FU busy when requested
system.cpu.iq.fu_busy_rate                   0.340992                       # FU busy rate (busy events/executed inst)
system.cpu.iq.int_inst_queue_reads          343856116                       # Number of integer instruction queue reads
system.cpu.iq.int_inst_queue_writes         130199167                       # Number of integer instruction queue writes
system.cpu.iq.int_inst_queue_wakeup_accesses    113784322                       # Number of integer instruction queue wakeup accesses
system.cpu.iq.fp_inst_queue_reads             1185057                       # Number of floating instruction queue reads
system.cpu.iq.fp_inst_queue_writes             592472                       # Number of floating instruction queue writes
system.cpu.iq.fp_inst_queue_wakeup_accesses       592097                       # Number of floating instruction queue wakeup accesses
system.cpu.iq.vec_inst_queue_reads                  0                       # Number of vector instruction queue reads
system.cpu.iq.vec_inst_queue_writes                 0                       # Number of vector instruction queue writes
system.cpu.iq.vec_inst_queue_wakeup_accesses            0                       # Number of vector instruction queue wakeup accesses
system.cpu.iq.int_alu_accesses              154435770                       # Number of integer alu accesses
system.cpu.iq.fp_alu_accesses                  592908                       # Number of floating point alu accesses
system.cpu.iq.vec_alu_accesses                      0                       # Number of vector alu accesses
system.cpu.iew.lsq.thread0.forwLoads          2544729                       # Number of loads that had data forwarded from stores
system.cpu.iew.lsq.thread0.invAddrLoads             0                       # Number of loads ignored due to an invalid address
system.cpu.iew.lsq.thread0.squashedLoads      1602296                       # Number of loads squashed
system.cpu.iew.lsq.thread0.ignoredResponses        22057                       # Number of memory responses ignored because the instruction is squashed
system.cpu.iew.lsq.thread0.memOrderViolation          545                       # Number of memory ordering violations
system.cpu.iew.lsq.thread0.squashedStores       890193                       # Number of stores squashed
system.cpu.iew.lsq.thread0.invAddrSwpfs             0                       # Number of software prefetches ignored due to an invalid address
system.cpu.iew.lsq.thread0.blockedLoads             0                       # Number of blocked loads due to partial load-store forwarding
system.cpu.iew.lsq.thread0.rescheduledLoads            1                       # Number of loads that were rescheduled
system.cpu.iew.lsq.thread0.cacheBlocked            65                       # Number of times an access to memory failed due to the cache being blocked
system.cpu.iew.iewIdleCycles                        0                       # Number of cycles IEW is idle
system.cpu.iew.iewSquashCycles                 265341                       # Number of cycles IEW is squashing
system.cpu.iew.iewBlockCycles                 2495196                       # Number of cycles IEW is blocking
system.cpu.iew.iewUnblockCycles                973354                       # Number of cycles IEW is unblocking
system.cpu.iew.iewDispatchedInsts           120415390                       # Number of instructions dispatched to IQ
system.cpu.iew.iewDispSquashedInsts            256823                       # Number of squashed instructions skipped by dispatch
system.cpu.iew.iewDispLoadInsts              20652178                       # Number of dispatched load instructions
system.cpu.iew.iewDispStoreInsts              9541717                       # Number of dispatched store instructions
system.cpu.iew.iewDispNonSpecInsts                141                       # Number of dispatched non-speculative instructions
system.cpu.iew.iewIQFullEvents                 669032                       # Number of times the IQ has become full, causing a stall
system.cpu.iew.iewLSQFullEvents                  6710                       # Number of times the LSQ has become full, causing a stall
system.cpu.iew.memOrderViolationEvents            545                       # Number of memory order violations
system.cpu.iew.predictedTakenIncorrect            904                       # Number of branches that were predicted taken incorrectly
system.cpu.iew.predictedNotTakenIncorrect       300355                       # Number of branches that were predicted not taken incorrectly
system.cpu.iew.branchMispredicts               301259                       # Number of branch mispredicts detected at execute
system.cpu.iew.iewExecutedInsts             114575338                       # Number of executed instructions
system.cpu.iew.iewExecLoadInsts              20095506                       # Number of load instructions executed
system.cpu.iew.iewExecSquashedInsts           1212108                       # Number of squashed instructions skipped in execute
system.cpu.iew.exec_swp                             0                       # number of swp insts executed
system.cpu.iew.exec_nop                             0                       # number of nop insts executed
system.cpu.iew.exec_refs                     29004749                       # number of memory reference insts executed
system.cpu.iew.exec_branches                 10864981                       # Number of branches executed
system.cpu.iew.exec_stores                    8909243                       # Number of stores executed
system.cpu.iew.exec_rate                     1.579844                       # Inst execution rate
system.cpu.iew.wb_sent                      114376794                       # cumulative count of insts sent to commit
system.cpu.iew.wb_count                     114376419                       # cumulative count of insts written-back
system.cpu.iew.wb_producers                  86298272                       # num instructions producing a value
system.cpu.iew.wb_consumers                 125283677                       # num instructions consuming a value
system.cpu.iew.wb_rate                       1.577101                       # insts written-back per cycle
system.cpu.iew.wb_fanout                     0.688823                       # average fanout of values written-back
system.cpu.commit.commitSquashedInsts         9779538                       # The number of squashed insts skipped by commit
system.cpu.commit.commitNonSpecStalls              36                       # The number of times commit has been forced to stall to communicate backwards
system.cpu.commit.branchMispredicts            264812                       # The number of times a branch was mispredicted
system.cpu.commit.committed_per_cycle::samples     72045271                       # Number of insts commited each cycle
system.cpu.commit.committed_per_cycle::mean     1.527369                       # Number of insts commited each cycle
system.cpu.commit.committed_per_cycle::stdev     1.647891                       # Number of insts commited each cycle
system.cpu.commit.committed_per_cycle::underflows            0      0.00%      0.00% # Number of insts commited each cycle
system.cpu.commit.committed_per_cycle::0     31847350     44.20%     44.20% # Number of insts commited each cycle
system.cpu.commit.committed_per_cycle::1     10887350     15.11%     59.32% # Number of insts commited each cycle
system.cpu.commit.committed_per_cycle::2      5243233      7.28%     66.59% # Number of insts commited each cycle
system.cpu.commit.committed_per_cycle::3      7603483     10.55%     77.15% # Number of insts commited each cycle
system.cpu.commit.committed_per_cycle::4     16463855     22.85%    100.00% # Number of insts commited each cycle
system.cpu.commit.committed_per_cycle::overflows            0      0.00%    100.00% # Number of insts commited each cycle
system.cpu.commit.committed_per_cycle::min_value            0                       # Number of insts commited each cycle
system.cpu.commit.committed_per_cycle::max_value            4                       # Number of insts commited each cycle
system.cpu.commit.committed_per_cycle::total     72045271                       # Number of insts commited each cycle
system.cpu.commit.committedInsts             62525833                       # Number of instructions committed
system.cpu.commit.committedOps              110039685                       # Number of ops (including micro ops) committed
system.cpu.commit.swp_count                         0                       # Number of s/w prefetches committed
system.cpu.commit.refs                       27701406                       # Number of memory references committed
system.cpu.commit.loads                      19049882                       # Number of loads committed
system.cpu.commit.membars                           0                       # Number of memory barriers committed
system.cpu.commit.branches                   10575287                       # Number of branches committed
system.cpu.commit.vec_insts                         0                       # Number of committed Vector instructions.
system.cpu.commit.fp_insts                     591928                       # Number of committed floating point instructions.
system.cpu.commit.int_insts                 109906472                       # Number of committed integer instructions.
system.cpu.commit.function_calls               329514                       # Number of function calls committed.
system.cpu.commit.op_class_0::No_OpClass        66156      0.06%      0.06% # Class of committed instruction
system.cpu.commit.op_class_0::IntAlu         81559305     74.12%     74.18% # Class of committed instruction
system.cpu.commit.op_class_0::IntMult          646190      0.59%     74.77% # Class of committed instruction
system.cpu.commit.op_class_0::IntDiv               28      0.00%     74.77% # Class of committed instruction
system.cpu.commit.op_class_0::FloatAdd          65551      0.06%     74.83% # Class of committed instruction
system.cpu.commit.op_class_0::FloatCmp              0      0.00%     74.83% # Class of committed instruction
system.cpu.commit.op_class_0::FloatCvt              0      0.00%     74.83% # Class of committed instruction
system.cpu.commit.op_class_0::FloatMult             0      0.00%     74.83% # Class of committed instruction
system.cpu.commit.op_class_0::FloatMultAcc            0      0.00%     74.83% # Class of committed instruction
system.cpu.commit.op_class_0::FloatDiv              0      0.00%     74.83% # Class of committed instruction
system.cpu.commit.op_class_0::FloatMisc             0      0.00%     74.83% # Class of committed instruction
system.cpu.commit.op_class_0::FloatSqrt             0      0.00%     74.83% # Class of committed instruction
system.cpu.commit.op_class_0::SimdAdd             374      0.00%     74.83% # Class of committed instruction
system.cpu.commit.op_class_0::SimdAddAcc            0      0.00%     74.83% # Class of committed instruction
system.cpu.commit.op_class_0::SimdAlu              94      0.00%     74.83% # Class of committed instruction
system.cpu.commit.op_class_0::SimdCmp               0      0.00%     74.83% # Class of committed instruction
system.cpu.commit.op_class_0::SimdCvt             140      0.00%     74.83% # Class of committed instruction
system.cpu.commit.op_class_0::SimdMisc            255      0.00%     74.83% # Class of committed instruction
system.cpu.commit.op_class_0::SimdMult              0      0.00%     74.83% # Class of committed instruction
system.cpu.commit.op_class_0::SimdMultAcc            0      0.00%     74.83% # Class of committed instruction
system.cpu.commit.op_class_0::SimdShift           186      0.00%     74.83% # Class of committed instruction
system.cpu.commit.op_class_0::SimdShiftAcc            0      0.00%     74.83% # Class of committed instruction
system.cpu.commit.op_class_0::SimdSqrt              0      0.00%     74.83% # Class of committed instruction
system.cpu.commit.op_class_0::SimdFloatAdd            0      0.00%     74.83% # Class of committed instruction
system.cpu.commit.op_class_0::SimdFloatAlu            0      0.00%     74.83% # Class of committed instruction
system.cpu.commit.op_class_0::SimdFloatCmp            0      0.00%     74.83% # Class of committed instruction
system.cpu.commit.op_class_0::SimdFloatCvt            0      0.00%     74.83% # Class of committed instruction
system.cpu.commit.op_class_0::SimdFloatDiv            0      0.00%     74.83% # Class of committed instruction
system.cpu.commit.op_class_0::SimdFloatMisc            0      0.00%     74.83% # Class of committed instruction
system.cpu.commit.op_class_0::SimdFloatMult            0      0.00%     74.83% # Class of committed instruction
system.cpu.commit.op_class_0::SimdFloatMultAcc            0      0.00%     74.83% # Class of committed instruction
system.cpu.commit.op_class_0::SimdFloatSqrt            0      0.00%     74.83% # Class of committed instruction
system.cpu.commit.op_class_0::SimdAes               0      0.00%     74.83% # Class of committed instruction
system.cpu.commit.op_class_0::SimdAesMix            0      0.00%     74.83% # Class of committed instruction
system.cpu.commit.op_class_0::SimdSha1Hash            0      0.00%     74.83% # Class of committed instruction
system.cpu.commit.op_class_0::SimdSha1Hash2            0      0.00%     74.83% # Class of committed instruction
system.cpu.commit.op_class_0::SimdSha256Hash            0      0.00%     74.83% # Class of committed instruction
system.cpu.commit.op_class_0::SimdSha256Hash2            0      0.00%     74.83% # Class of committed instruction
system.cpu.commit.op_class_0::SimdShaSigma2            0      0.00%     74.83% # Class of committed instruction
system.cpu.commit.op_class_0::SimdShaSigma3            0      0.00%     74.83% # Class of committed instruction
system.cpu.commit.op_class_0::MemRead        18787650     17.07%     91.90% # Class of committed instruction
system.cpu.commit.op_class_0::MemWrite        8388953      7.62%     99.52% # Class of committed instruction
system.cpu.commit.op_class_0::FloatMemRead       262232      0.24%     99.76% # Class of committed instruction
system.cpu.commit.op_class_0::FloatMemWrite       262571      0.24%    100.00% # Class of committed instruction
system.cpu.commit.op_class_0::IprAccess             0      0.00%    100.00% # Class of committed instruction
system.cpu.commit.op_class_0::InstPrefetch            0      0.00%    100.00% # Class of committed instruction
system.cpu.commit.op_class_0::total         110039685                       # Class of committed instruction
system.cpu.commit.bw_lim_events              16463855                       # number cycles where commit BW limit reached
system.cpu.rob.rob_reads                    175400639                       # The number of ROB reads
system.cpu.rob.rob_writes                   240079733                       # The number of ROB writes
system.cpu.timesIdled                             441                       # Number of times that the entire CPU went into an idle state and unscheduled itself
system.cpu.idleCycles                           36657                       # Total number of cycles that the CPU has spent unscheduled due to idling
system.cpu.committedInsts                    62525833                       # Number of Instructions Simulated
system.cpu.committedOps                     110039685                       # Number of Ops (including micro ops) Simulated
system.cpu.cpi                               1.159892                       # CPI: Cycles Per Instruction
system.cpu.cpi_total                         1.159892                       # CPI: Total CPI of All Threads
system.cpu.ipc                               0.862149                       # IPC: Instructions Per Cycle
system.cpu.ipc_total                         0.862149                       # IPC: Total IPC of All Threads
system.cpu.int_regfile_reads                175747709                       # number of integer regfile reads
system.cpu.int_regfile_writes                94677877                       # number of integer regfile writes
system.cpu.fp_regfile_reads                    266306                       # number of floating regfile reads
system.cpu.fp_regfile_writes                   329353                       # number of floating regfile writes
system.cpu.cc_regfile_reads                  51690013                       # number of cc regfile reads
system.cpu.cc_regfile_writes                 40540661                       # number of cc regfile writes
system.cpu.misc_regfile_reads                51714808                       # number of misc regfile reads
system.cpu.dcache.tags.pwrStateResidencyTicks::UNDEFINED  36261606500                       # Cumulative time (in ticks) in various power states
system.cpu.dcache.tags.tagsinuse           511.396689                       # Cycle average of tags in use
system.cpu.dcache.tags.total_refs            26201760                       # Total number of references to valid blocks.
system.cpu.dcache.tags.sampled_refs             15242                       # Sample count of references to valid blocks.
system.cpu.dcache.tags.avg_refs           1719.049993                       # Average number of references to valid blocks.
system.cpu.dcache.tags.warmup_cycle            169500                       # Cycle when the warmup percentage was hit.
system.cpu.dcache.tags.occ_blocks::.cpu.data   511.396689                       # Average occupied blocks per requestor
system.cpu.dcache.tags.occ_percent::.cpu.data     0.998822                       # Average percentage of cache occupancy
system.cpu.dcache.tags.occ_percent::total     0.998822                       # Average percentage of cache occupancy
system.cpu.dcache.tags.occ_task_id_blocks::1024          512                       # Occupied blocks per task id
system.cpu.dcache.tags.age_task_id_blocks_1024::0          131                       # Occupied blocks per task id
system.cpu.dcache.tags.age_task_id_blocks_1024::1          379                       # Occupied blocks per task id
system.cpu.dcache.tags.age_task_id_blocks_1024::4            2                       # Occupied blocks per task id
system.cpu.dcache.tags.occ_task_id_percent::1024            1                       # Percentage of cache occupancy per task id
system.cpu.dcache.tags.tag_accesses         209631914                       # Number of tag accesses
system.cpu.dcache.tags.data_accesses        209631914                       # Number of data accesses
system.cpu.dcache.pwrStateResidencyTicks::UNDEFINED  36261606500                       # Cumulative time (in ticks) in various power states
system.cpu.dcache.ReadReq_hits::.cpu.data     17544007                       # number of ReadReq hits
system.cpu.dcache.ReadReq_hits::total        17544007                       # number of ReadReq hits
system.cpu.dcache.WriteReq_hits::.cpu.data      8641943                       # number of WriteReq hits
system.cpu.dcache.WriteReq_hits::total        8641943                       # number of WriteReq hits
system.cpu.dcache.demand_hits::.cpu.data     26185950                       # number of demand (read+write) hits
system.cpu.dcache.demand_hits::total         26185950                       # number of demand (read+write) hits
system.cpu.dcache.overall_hits::.cpu.data     26185950                       # number of overall hits
system.cpu.dcache.overall_hits::total        26185950                       # number of overall hits
system.cpu.dcache.ReadReq_misses::.cpu.data         6553                       # number of ReadReq misses
system.cpu.dcache.ReadReq_misses::total          6553                       # number of ReadReq misses
system.cpu.dcache.WriteReq_misses::.cpu.data         9581                       # number of WriteReq misses
system.cpu.dcache.WriteReq_misses::total         9581                       # number of WriteReq misses
system.cpu.dcache.demand_misses::.cpu.data        16134                       # number of demand (read+write) misses
system.cpu.dcache.demand_misses::total          16134                       # number of demand (read+write) misses
system.cpu.dcache.overall_misses::.cpu.data        16134                       # number of overall misses
system.cpu.dcache.overall_misses::total         16134                       # number of overall misses
system.cpu.dcache.ReadReq_miss_latency::.cpu.data    249648000                       # number of ReadReq miss cycles
system.cpu.dcache.ReadReq_miss_latency::total    249648000                       # number of ReadReq miss cycles
system.cpu.dcache.WriteReq_miss_latency::.cpu.data    782641999                       # number of WriteReq miss cycles
system.cpu.dcache.WriteReq_miss_latency::total    782641999                       # number of WriteReq miss cycles
system.cpu.dcache.demand_miss_latency::.cpu.data   1032289999                       # number of demand (read+write) miss cycles
system.cpu.dcache.demand_miss_latency::total   1032289999                       # number of demand (read+write) miss cycles
system.cpu.dcache.overall_miss_latency::.cpu.data   1032289999                       # number of overall miss cycles
system.cpu.dcache.overall_miss_latency::total   1032289999                       # number of overall miss cycles
system.cpu.dcache.ReadReq_accesses::.cpu.data     17550560                       # number of ReadReq accesses(hits+misses)
system.cpu.dcache.ReadReq_accesses::total     17550560                       # number of ReadReq accesses(hits+misses)
system.cpu.dcache.WriteReq_accesses::.cpu.data      8651524                       # number of WriteReq accesses(hits+misses)
system.cpu.dcache.WriteReq_accesses::total      8651524                       # number of WriteReq accesses(hits+misses)
system.cpu.dcache.demand_accesses::.cpu.data     26202084                       # number of demand (read+write) accesses
system.cpu.dcache.demand_accesses::total     26202084                       # number of demand (read+write) accesses
system.cpu.dcache.overall_accesses::.cpu.data     26202084                       # number of overall (read+write) accesses
system.cpu.dcache.overall_accesses::total     26202084                       # number of overall (read+write) accesses
system.cpu.dcache.ReadReq_miss_rate::.cpu.data     0.000373                       # miss rate for ReadReq accesses
system.cpu.dcache.ReadReq_miss_rate::total     0.000373                       # miss rate for ReadReq accesses
system.cpu.dcache.WriteReq_miss_rate::.cpu.data     0.001107                       # miss rate for WriteReq accesses
system.cpu.dcache.WriteReq_miss_rate::total     0.001107                       # miss rate for WriteReq accesses
system.cpu.dcache.demand_miss_rate::.cpu.data     0.000616                       # miss rate for demand accesses
system.cpu.dcache.demand_miss_rate::total     0.000616                       # miss rate for demand accesses
system.cpu.dcache.overall_miss_rate::.cpu.data     0.000616                       # miss rate for overall accesses
system.cpu.dcache.overall_miss_rate::total     0.000616                       # miss rate for overall accesses
[...]
system.l3cache.tags.occ_percent::.cpu.data     0.144422                       # Average percentage of cache occupancy
system.l3cache.tags.occ_percent::total       0.165855                       # Average percentage of cache occupancy
system.l3cache.tags.occ_task_id_blocks::1024         9582                       # Occupied blocks per task id
system.l3cache.tags.age_task_id_blocks_1024::0           67                       # Occupied blocks per task id
system.l3cache.tags.age_task_id_blocks_1024::1           28                       # Occupied blocks per task id
system.l3cache.tags.age_task_id_blocks_1024::2          208                       # Occupied blocks per task id
system.l3cache.tags.age_task_id_blocks_1024::3         2083                       # Occupied blocks per task id
system.l3cache.tags.age_task_id_blocks_1024::4         7196                       # Occupied blocks per task id
system.l3cache.tags.occ_task_id_percent::1024     0.292419                       # Percentage of cache occupancy per task id
system.l3cache.tags.tag_accesses               394494                       # Number of tag accesses
system.l3cache.tags.data_accesses              394494                       # Number of data accesses
system.l3cache.pwrStateResidencyTicks::UNDEFINED  36261606500                       # Cumulative time (in ticks) in various power states
system.l3cache.WritebackDirty_hits::.writebacks         9488                       # number of WritebackDirty hits
system.l3cache.WritebackDirty_hits::total         9488                       # number of WritebackDirty hits
system.l3cache.ReadExReq_hits::.cpu.data          312                       # number of ReadExReq hits
system.l3cache.ReadExReq_hits::total              312                       # number of ReadExReq hits
system.l3cache.ReadSharedReq_hits::.cpu.inst           15                       # number of ReadSharedReq hits
system.l3cache.ReadSharedReq_hits::.cpu.data         4660                       # number of ReadSharedReq hits
system.l3cache.ReadSharedReq_hits::total         4675                       # number of ReadSharedReq hits
system.l3cache.demand_hits::.cpu.inst              15                       # number of demand (read+write) hits
system.l3cache.demand_hits::.cpu.data            4972                       # number of demand (read+write) hits
system.l3cache.demand_hits::total                4987                       # number of demand (read+write) hits
system.l3cache.overall_hits::.cpu.inst             15                       # number of overall hits
system.l3cache.overall_hits::.cpu.data           4972                       # number of overall hits
system.l3cache.overall_hits::total               4987                       # number of overall hits
system.l3cache.ReadExReq_misses::.cpu.data         8487                       # number of ReadExReq misses
system.l3cache.ReadExReq_misses::total           8487                       # number of ReadExReq misses
system.l3cache.ReadSharedReq_misses::.cpu.inst          804                       # number of ReadSharedReq misses
system.l3cache.ReadSharedReq_misses::.cpu.data          291                       # number of ReadSharedReq misses
system.l3cache.ReadSharedReq_misses::total         1095                       # number of ReadSharedReq misses
system.l3cache.demand_misses::.cpu.inst           804                       # number of demand (read+write) misses
system.l3cache.demand_misses::.cpu.data          8778                       # number of demand (read+write) misses
system.l3cache.demand_misses::total              9582                       # number of demand (read+write) misses
system.l3cache.overall_misses::.cpu.inst          804                       # number of overall misses
system.l3cache.overall_misses::.cpu.data         8778                       # number of overall misses
system.l3cache.overall_misses::total             9582                       # number of overall misses
system.l3cache.ReadExReq_miss_latency::.cpu.data    651001000                       # number of ReadExReq miss cycles
system.l3cache.ReadExReq_miss_latency::total    651001000                       # number of ReadExReq miss cycles
system.l3cache.ReadSharedReq_miss_latency::.cpu.inst     58562000                       # number of ReadSharedReq miss cycles
system.l3cache.ReadSharedReq_miss_latency::.cpu.data     32281500                       # number of ReadSharedReq miss cycles
system.l3cache.ReadSharedReq_miss_latency::total     90843500                       # number of ReadSharedReq miss cycles
system.l3cache.demand_miss_latency::.cpu.inst     58562000                       # number of demand (read+write) miss cycles
system.l3cache.demand_miss_latency::.cpu.data    683282500                       # number of demand (read+write) miss cycles
system.l3cache.demand_miss_latency::total    741844500                       # number of demand (read+write) miss cycles
system.l3cache.overall_miss_latency::.cpu.inst     58562000                       # number of overall miss cycles
system.l3cache.overall_miss_latency::.cpu.data    683282500                       # number of overall miss cycles
system.l3cache.overall_miss_latency::total    741844500                       # number of overall miss cycles
system.l3cache.WritebackDirty_accesses::.writebacks         9488                       # number of WritebackDirty accesses(hits+misses)
system.l3cache.WritebackDirty_accesses::total         9488                       # number of WritebackDirty accesses(hits+misses)
system.l3cache.ReadExReq_accesses::.cpu.data         8799                       # number of ReadExReq accesses(hits+misses)
system.l3cache.ReadExReq_accesses::total         8799                       # number of ReadExReq accesses(hits+misses)
system.l3cache.ReadSharedReq_accesses::.cpu.inst          819                       # number of ReadSharedReq accesses(hits+misses)
system.l3cache.ReadSharedReq_accesses::.cpu.data         4951                       # number of ReadSharedReq accesses(hits+misses)
system.l3cache.ReadSharedReq_accesses::total         5770                       # number of ReadSharedReq accesses(hits+misses)
system.l3cache.demand_accesses::.cpu.inst          819                       # number of demand (read+write) accesses
system.l3cache.demand_accesses::.cpu.data        13750                       # number of demand (read+write) accesses
system.l3cache.demand_accesses::total           14569                       # number of demand (read+write) accesses
system.l3cache.overall_accesses::.cpu.inst          819                       # number of overall (read+write) accesses
system.l3cache.overall_accesses::.cpu.data        13750                       # number of overall (read+write) accesses
system.l3cache.overall_accesses::total          14569                       # number of overall (read+write) accesses
system.l3cache.ReadExReq_miss_rate::.cpu.data     0.964541                       # miss rate for ReadExReq accesses
system.l3cache.ReadExReq_miss_rate::total     0.964541                       # miss rate for ReadExReq accesses
system.l3cache.ReadSharedReq_miss_rate::.cpu.inst     0.981685                       # miss rate for ReadSharedReq accesses
system.l3cache.ReadSharedReq_miss_rate::.cpu.data     0.058776                       # miss rate for ReadSharedReq accesses
system.l3cache.ReadSharedReq_miss_rate::total     0.189775                       # miss rate for ReadSharedReq accesses
system.l3cache.demand_miss_rate::.cpu.inst     0.981685                       # miss rate for demand accesses
system.l3cache.demand_miss_rate::.cpu.data     0.638400                       # miss rate for demand accesses
system.l3cache.demand_miss_rate::total       0.657698                       # miss rate for demand accesses
system.l3cache.overall_miss_rate::.cpu.inst     0.981685                       # miss rate for overall accesses
system.l3cache.overall_miss_rate::.cpu.data     0.638400                       # miss rate for overall accesses
system.l3cache.overall_miss_rate::total      0.657698                       # miss rate for overall accesses
system.l3cache.ReadExReq_avg_miss_latency::.cpu.data 76705.667491                       # average ReadExReq miss latency
system.l3cache.ReadExReq_avg_miss_latency::total 76705.667491                       # average ReadExReq miss latency
system.l3cache.ReadSharedReq_avg_miss_latency::.cpu.inst 72838.308458                       # average ReadSharedReq miss latency
system.l3cache.ReadSharedReq_avg_miss_latency::.cpu.data 110932.989691                       # average ReadSharedReq miss latency
system.l3cache.ReadSharedReq_avg_miss_latency::total 82962.100457                       # average ReadSharedReq miss latency
system.l3cache.demand_avg_miss_latency::.cpu.inst 72838.308458                       # average overall miss latency
system.l3cache.demand_avg_miss_latency::.cpu.data 77840.339485                       # average overall miss latency
system.l3cache.demand_avg_miss_latency::total 77420.632436                       # average overall miss latency
system.l3cache.overall_avg_miss_latency::.cpu.inst 72838.308458                       # average overall miss latency
system.l3cache.overall_avg_miss_latency::.cpu.data 77840.339485                       # average overall miss latency
system.l3cache.overall_avg_miss_latency::total 77420.632436                       # average overall miss latency
system.l3cache.blocked_cycles::no_mshrs             0                       # number of cycles access was blocked
system.l3cache.blocked_cycles::no_targets            0                       # number of cycles access was blocked
system.l3cache.blocked::no_mshrs                    0                       # number of cycles access was blocked
system.l3cache.blocked::no_targets                  0                       # number of cycles access was blocked
system.l3cache.avg_blocked_cycles::no_mshrs          nan                       # average number of cycles each access was blocked
system.l3cache.avg_blocked_cycles::no_targets          nan                       # average number of cycles each access was blocked
system.l3cache.ReadExReq_mshr_misses::.cpu.data         8487                       # number of ReadExReq MSHR misses
system.l3cache.ReadExReq_mshr_misses::total         8487                       # number of ReadExReq MSHR misses
system.l3cache.ReadSharedReq_mshr_misses::.cpu.inst          804                       # number of ReadSharedReq MSHR misses
system.l3cache.ReadSharedReq_mshr_misses::.cpu.data          291                       # number of ReadSharedReq MSHR misses
system.l3cache.ReadSharedReq_mshr_misses::total         1095                       # number of ReadSharedReq MSHR misses
system.l3cache.demand_mshr_misses::.cpu.inst          804                       # number of demand (read+write) MSHR misses
system.l3cache.demand_mshr_misses::.cpu.data         8778                       # number of demand (read+write) MSHR misses
system.l3cache.demand_mshr_misses::total         9582                       # number of demand (read+write) MSHR misses
system.l3cache.overall_mshr_misses::.cpu.inst          804                       # number of overall MSHR misses
system.l3cache.overall_mshr_misses::.cpu.data         8778                       # number of overall MSHR misses
system.l3cache.overall_mshr_misses::total         9582                       # number of overall MSHR misses
system.l3cache.ReadExReq_mshr_miss_latency::.cpu.data    634027000                       # number of ReadExReq MSHR miss cycles
system.l3cache.ReadExReq_mshr_miss_latency::total    634027000                       # number of ReadExReq MSHR miss cycles
system.l3cache.ReadSharedReq_mshr_miss_latency::.cpu.inst     56954000                       # number of ReadSharedReq MSHR miss cycles
system.l3cache.ReadSharedReq_mshr_miss_latency::.cpu.data     31699500                       # number of ReadSharedReq MSHR miss cycles
system.l3cache.ReadSharedReq_mshr_miss_latency::total     88653500                       # number of ReadSharedReq MSHR miss cycles
system.l3cache.demand_mshr_miss_latency::.cpu.inst     56954000                       # number of demand (read+write) MSHR miss cycles
system.l3cache.demand_mshr_miss_latency::.cpu.data    665726500                       # number of demand (read+write) MSHR miss cycles
system.l3cache.demand_mshr_miss_latency::total    722680500                       # number of demand (read+write) MSHR miss cycles
system.l3cache.overall_mshr_miss_latency::.cpu.inst     56954000                       # number of overall MSHR miss cycles
system.l3cache.overall_mshr_miss_latency::.cpu.data    665726500                       # number of overall MSHR miss cycles
system.l3cache.overall_mshr_miss_latency::total    722680500                       # number of overall MSHR miss cycles
system.l3cache.ReadExReq_mshr_miss_rate::.cpu.data     0.964541                       # mshr miss rate for ReadExReq accesses
system.l3cache.ReadExReq_mshr_miss_rate::total     0.964541                       # mshr miss rate for ReadExReq accesses
system.l3cache.ReadSharedReq_mshr_miss_rate::.cpu.inst     0.981685                       # mshr miss rate for ReadSharedReq accesses
system.l3cache.ReadSharedReq_mshr_miss_rate::.cpu.data     0.058776                       # mshr miss rate for ReadSharedReq accesses
system.l3cache.ReadSharedReq_mshr_miss_rate::total     0.189775                       # mshr miss rate for ReadSharedReq accesses
system.l3cache.demand_mshr_miss_rate::.cpu.inst     0.981685                       # mshr miss rate for demand accesses
system.l3cache.demand_mshr_miss_rate::.cpu.data     0.638400                       # mshr miss rate for demand accesses
system.l3cache.demand_mshr_miss_rate::total     0.657698                       # mshr miss rate for demand accesses
system.l3cache.overall_mshr_miss_rate::.cpu.inst     0.981685                       # mshr miss rate for overall accesses
system.l3cache.overall_mshr_miss_rate::.cpu.data     0.638400                       # mshr miss rate for overall accesses
system.l3cache.overall_mshr_miss_rate::total     0.657698                       # mshr miss rate for overall accesses
system.l3cache.ReadExReq_avg_mshr_miss_latency::.cpu.data 74705.667491                       # average ReadExReq mshr miss latency
system.l3cache.ReadExReq_avg_mshr_miss_latency::total 74705.667491                       # average ReadExReq mshr miss latency
system.l3cache.ReadSharedReq_avg_mshr_miss_latency::.cpu.inst 70838.308458                       # average ReadSharedReq mshr miss latency
system.l3cache.ReadSharedReq_avg_mshr_miss_latency::.cpu.data 108932.989691                       # average ReadSharedReq mshr miss latency
system.l3cache.ReadSharedReq_avg_mshr_miss_latency::total 80962.100457                       # average ReadSharedReq mshr miss latency
system.l3cache.demand_avg_mshr_miss_latency::.cpu.inst 70838.308458                       # average overall mshr miss latency
system.l3cache.demand_avg_mshr_miss_latency::.cpu.data 75840.339485                       # average overall mshr miss latency
system.l3cache.demand_avg_mshr_miss_latency::total 75420.632436                       # average overall mshr miss latency
system.l3cache.overall_avg_mshr_miss_latency::.cpu.inst 70838.308458                       # average overall mshr miss latency
system.l3cache.overall_avg_mshr_miss_latency::.cpu.data 75840.339485                       # average overall mshr miss latency
system.l3cache.overall_avg_mshr_miss_latency::total 75420.632436                       # average overall mshr miss latency
system.l3cache.replacements                         0                       # number of replacements
system.membus.snoop_filter.tot_requests          9582                       # Total number of requests made to the snoop filter.
system.membus.snoop_filter.hit_single_requests            0                       # Number of requests hitting in the snoop filter with a single holder of the requested data.
system.membus.snoop_filter.hit_multi_requests            0                       # Number of requests hitting in the snoop filter with multiple (>1) holders of the requested data.
system.membus.snoop_filter.tot_snoops               0                       # Total number of snoops made to the snoop filter.
system.membus.snoop_filter.hit_single_snoops            0                       # Number of snoops hitting in the snoop filter with a single holder of the requested data.
system.membus.snoop_filter.hit_multi_snoops            0                       # Number of snoops hitting in the snoop filter with multiple (>1) holders of the requested data.
system.membus.pwrStateResidencyTicks::UNDEFINED  36261606500                       # Cumulative time (in ticks) in various power states
system.membus.trans_dist::ReadResp               1095                       # Transaction distribution
system.membus.trans_dist::ReadExReq              8487                       # Transaction distribution
system.membus.trans_dist::ReadExResp             8487                       # Transaction distribution
system.membus.trans_dist::ReadSharedReq          1095                       # Transaction distribution
system.membus.pkt_count_system.l3cache.mem_side::system.mem_ctrl.port        19164                       # Packet count per connected master and slave (bytes)
system.membus.pkt_count_system.l3cache.mem_side::total        19164                       # Packet count per connected master and slave (bytes)
system.membus.pkt_count::total                  19164                       # Packet count per connected master and slave (bytes)
system.membus.pkt_size_system.l3cache.mem_side::system.mem_ctrl.port       613248                       # Cumulative packet size per connected master and slave (bytes)
system.membus.pkt_size_system.l3cache.mem_side::total       613248                       # Cumulative packet size per connected master and slave (bytes)
system.membus.pkt_size::total                  613248                       # Cumulative packet size per connected master and slave (bytes)
system.membus.snoops                                0                       # Total snoops (count)
system.membus.snoopTraffic                          0                       # Total snoop traffic (bytes)
system.membus.snoop_fanout::samples              9582                       # Request fanout histogram
system.membus.snoop_fanout::mean                    0                       # Request fanout histogram
system.membus.snoop_fanout::stdev                   0                       # Request fanout histogram
system.membus.snoop_fanout::underflows              0      0.00%      0.00% # Request fanout histogram
system.membus.snoop_fanout::0                    9582    100.00%    100.00% # Request fanout histogram
system.membus.snoop_fanout::1                       0      0.00%    100.00% # Request fanout histogram
system.membus.snoop_fanout::overflows               0      0.00%    100.00% # Request fanout histogram
system.membus.snoop_fanout::min_value               0                       # Request fanout histogram
system.membus.snoop_fanout::max_value               0                       # Request fanout histogram
system.membus.snoop_fanout::total                9582                       # Request fanout histogram
system.membus.reqLayer0.occupancy             4791000                       # Layer occupancy (ticks)
system.membus.reqLayer0.utilization               0.0                       # Layer utilization (%)
system.membus.respLayer0.occupancy           25150750                       # Layer occupancy (ticks)
system.membus.respLayer0.utilization              0.1                       # Layer utilization (%)

---------- End Simulation Statistics   ----------