
---------- Begin Simulation Statistics ----------
sim_seconds                                  0.036198                       # Number of seconds simulated
sim_ticks                                 36197821000                       # Number of ticks simulated
final_tick                                36197821000                       # Number of ticks from beginning of simulation (restored from checkpoints and never reset)
sim_freq                                 1000000000000                       # Frequency of simulated ticks
host_inst_rate                                 282871                       # Simulator instruction rate (inst/s)
host_op_rate                                   497826                       # Simulator op (including micro ops) rate (op/s)
host_tick_rate                              163761110                       # Simulator tick rate (ticks/s)
host_mem_usage                                 660824                       # Number of bytes of host memory used
host_seconds                                   221.04                       # Real time elapsed on the host
sim_insts                                    62525833                       # Number of instructions simulated
sim_ops                                     110039685                       # Number of ops (including micro ops) simulated
system.clk_domain.voltage_domain.voltage            1                       # Voltage in Volts
system.clk_domain.clock                           500                       # Clock period in ticks
system.mem_ctrl.pwrStateResidencyTicks::UNDEFINED  36197821000                       # Cumulative time (in ticks) in various power states
system.mem_ctrl.bytes_read::.cpu.inst           51328                       # Number of bytes read from this memory
system.mem_ctrl.bytes_read::.cpu.data          561792                       # Number of bytes read from this memory
system.mem_ctrl.bytes_read::total              613120                       # Number of bytes read from this memory
system.mem_ctrl.bytes_inst_read::.cpu.inst        51328                       # Number of instructions bytes read from this memory
system.mem_ctrl.bytes_inst_read::total          51328                       # Number of instructions bytes read from this memory
system.mem_ctrl.num_reads::.cpu.inst              802                       # Number of read requests responded to by this memory
system.mem_ctrl.num_reads::.cpu.data             8778                       # Number of read requests responded to by this memory
system.mem_ctrl.num_reads::total                 9580                       # Number of read requests responded to by this memory
system.mem_ctrl.bw_read::.cpu.inst            1417986                       # Total read bandwidth from this memory (bytes/s)
system.mem_ctrl.bw_read::.cpu.data           15520050                       # Total read bandwidth from this memory (bytes/s)
system.mem_ctrl.bw_read::total               16938036                       # Total read bandwidth from this memory (bytes/s)
system.mem_ctrl.bw_inst_read::.cpu.inst       1417986                       # Instruction read bandwidth from this memory (bytes/s)
system.mem_ctrl.bw_inst_read::total           1417986                       # Instruction read bandwidth from this memory (bytes/s)
system.mem_ctrl.bw_total::.cpu.inst           1417986                       # Total bandwidth to/from this memory (bytes/s)
system.mem_ctrl.bw_total::.cpu.data          15520050                       # Total bandwidth to/from this memory (bytes/s)
system.mem_ctrl.bw_total::total              16938036                       # Total bandwidth to/from this memory (bytes/s)
system.mem_ctrl.avgPriority_.cpu.inst::samples       802.00                       # Average QoS priority value for accepted requests
system.mem_ctrl.avgPriority_.cpu.data::samples      8778.00                       # Average QoS priority value for accepted requests
system.mem_ctrl.priorityMinLatency       0.000000018750                       # per QoS priority minimum request to response latency (s)
system.mem_ctrl.priorityMaxLatency       0.000001102750                       # per QoS priority maximum request to response latency (s)
system.mem_ctrl.numReadWriteTurnArounds             0                       # Number of turnarounds from READ to WRITE
system.mem_ctrl.numWriteReadTurnArounds             0                       # Number of turnarounds from WRITE to READ
system.mem_ctrl.numStayReadState                23885                       # Number of times bus staying in READ state
system.mem_ctrl.numStayWriteState                   0                       # Number of times bus staying in WRITE state
system.mem_ctrl.readReqs                         9580                       # Number of read requests accepted
system.mem_ctrl.writeReqs                           0                       # Number of write requests accepted
system.mem_ctrl.readBursts                       9580                       # Number of DRAM read bursts, including those serviced by the write queue
system.mem_ctrl.writeBursts                         0                       # Number of DRAM write bursts, including those merged in the write queue
system.mem_ctrl.bytesReadDRAM                  613120                       # Total number of bytes read from DRAM
system.mem_ctrl.bytesReadWrQ                        0                       # Total number of bytes read from write queue
system.mem_ctrl.bytesWritten                        0                       # Total number of bytes written to DRAM
system.mem_ctrl.bytesReadSys                   613120                       # Total read bytes from the system interface side
system.mem_ctrl.bytesWrittenSys                     0                       # Total written bytes from the system interface side
system.mem_ctrl.servicedByWrQ                       0                       # Number of DRAM read bursts serviced by the write queue
system.mem_ctrl.mergedWrBursts                      0                       # Number of DRAM write bursts merged with an existing one
system.mem_ctrl.neitherReadNorWriteReqs             0                       # Number of requests that are neither read nor write
system.mem_ctrl.perBankRdBursts::0                786                       # Per bank write bursts
system.mem_ctrl.perBankRdBursts::1                622                       # Per bank write bursts
system.mem_ctrl.perBankRdBursts::2                552                       # Per bank write bursts
system.mem_ctrl.perBankRdBursts::3                528                       # Per bank write bursts
system.mem_ctrl.perBankRdBursts::4                542                       # Per bank write bursts
system.mem_ctrl.perBankRdBursts::5                526                       # Per bank write bursts
system.mem_ctrl.perBankRdBursts::6                587                       # Per bank write bursts
system.mem_ctrl.perBankRdBursts::7                621                       # Per bank write bursts
system.mem_ctrl.perBankRdBursts::8                543                       # Per bank write bursts
system.mem_ctrl.perBankRdBursts::9                566                       # Per bank write bursts
system.mem_ctrl.perBankRdBursts::10               659                       # Per bank write bursts
system.mem_ctrl.perBankRdBursts::11               615                       # Per bank write bursts
system.mem_ctrl.perBankRdBursts::12               572                       # Per bank write bursts
system.mem_ctrl.perBankRdBursts::13               580                       # Per bank write bursts
system.mem_ctrl.perBankRdBursts::14               627                       # Per bank write bursts
system.mem_ctrl.perBankRdBursts::15               654                       # Per bank write bursts
system.mem_ctrl.perBankWrBursts::0                  0                       # Per bank write bursts
system.mem_ctrl.perBankWrBursts::1                  0                       # Per bank write bursts
system.mem_ctrl.perBankWrBursts::2                  0                       # Per bank write bursts
system.mem_ctrl.perBankWrBursts::3                  0                       # Per bank write bursts
system.mem_ctrl.perBankWrBursts::4                  0                       # Per bank write bursts
system.mem_ctrl.perBankWrBursts::5                  0                       # Per bank write bursts
system.mem_ctrl.perBankWrBursts::6                  0                       # Per bank write bursts
system.mem_ctrl.perBankWrBursts::7                  0                       # Per bank write bursts
system.mem_ctrl.perBankWrBursts::8                  0                       # Per bank write bursts
system.mem_ctrl.perBankWrBursts::9                  0                       # Per bank write bursts
system.mem_ctrl.perBankWrBursts::10                 0                       # Per bank write bursts
system.mem_ctrl.perBankWrBursts::11                 0                       # Per bank write bursts
system.mem_ctrl.perBankWrBursts::12                 0                       # Per bank write bursts
system.mem_ctrl.perBankWrBursts::13                 0                       # Per bank write bursts
system.mem_ctrl.perBankWrBursts::14                 0                       # Per bank write bursts
system.mem_ctrl.perBankWrBursts::15                 0                       # Per bank write bursts
system.mem_ctrl.numRdRetry                          0                       # Number of times read queue was full causing retry
system.mem_ctrl.numWrRetry                          0                       # Number of times write queue was full causing retry
system.mem_ctrl.totGap                    36197737000                       # Total gap between requests
system.mem_ctrl.readPktSize::0                      0                       # Read request sizes (log2)
system.mem_ctrl.readPktSize::1                      0                       # Read request sizes (log2)
system.mem_ctrl.readPktSize::2                      0                       # Read request sizes (log2)
system.mem_ctrl.readPktSize::3                      0                       # Read request sizes (log2)
system.mem_ctrl.readPktSize::4                      0                       # Read request sizes (log2)
system.mem_ctrl.readPktSize::5                      0                       # Read request sizes (log2)
system.mem_ctrl.readPktSize::6                   9580                       # Read request sizes (log2)
system.mem_ctrl.writePktSize::0                     0                       # Write request sizes (log2)
system.mem_ctrl.writePktSize::1                     0                       # Write request sizes (log2)
system.mem_ctrl.writePktSize::2                     0                       # Write request sizes (log2)
system.mem_ctrl.writePktSize::3                     0                       # Write request sizes (log2)
system.mem_ctrl.writePktSize::4                     0                       # Write request sizes (log2)
system.mem_ctrl.writePktSize::5                     0                       # Write request sizes (log2)
system.mem_ctrl.writePktSize::6                     0                       # Write request sizes (log2)
system.mem_ctrl.rdQLenPdf::0                     9157                       # What read queue length does an incoming req see
system.mem_ctrl.rdQLenPdf::1                      313                       # What read queue length does an incoming req see
system.mem_ctrl.rdQLenPdf::2                       85                       # What read queue length does an incoming req see
system.mem_ctrl.rdQLenPdf::3                       20                       # What read queue length does an incoming req see
system.mem_ctrl.rdQLenPdf::4                        4                       # What read queue length does an incoming req see
system.mem_ctrl.rdQLenPdf::5                        1                       # What read queue length does an incoming req see
system.mem_ctrl.rdQLenPdf::6                        0                       # What read queue length does an incoming req see
system.mem_ctrl.rdQLenPdf::7                        0                       # What read queue length does an incoming req see
system.mem_ctrl.rdQLenPdf::8                        0                       # What read queue length does an incoming req see
system.mem_ctrl.rdQLenPdf::9                        0                       # What read queue length does an incoming req see
system.mem_ctrl.rdQLenPdf::10                       0                       # What read queue length does an incoming req see
system.mem_ctrl.rdQLenPdf::11                       0                       # What read queue length does an incoming req see
system.mem_ctrl.rdQLenPdf::12                       0                       # What read queue length does an incoming req see
system.mem_ctrl.rdQLenPdf::13                       0                       # What read queue length does an incoming req see
system.mem_ctrl.rdQLenPdf::14                       0                       # What read queue length does an incoming req see
system.mem_ctrl.rdQLenPdf::15                       0                       # What read queue length does an incoming req see
system.mem_ctrl.rdQLenPdf::16                       0                       # What read queue length does an incoming req see
system.mem_ctrl.rdQLenPdf::17                       0                       # What read queue length does an incoming req see
system.mem_ctrl.rdQLenPdf::18                       0                       # What read queue length does an incoming req see
system.mem_ctrl.rdQLenPdf::19                       0                       # What read queue length does an incoming req see
system.mem_ctrl.rdQLenPdf::20                       0                       # What read queue length does an incoming req see
system.mem_ctrl.rdQLenPdf::21                       0                       # What read queue length does an incoming req see
system.mem_ctrl.rdQLenPdf::22                       0                       # What read queue length does an incoming req see
system.mem_ctrl.rdQLenPdf::23                       0                       # What read queue length does an incoming req see
system.mem_ctrl.rdQLenPdf::24                       0                       # What read queue length does an incoming req see
system.mem_ctrl.rdQLenPdf::25                       0                       # What read queue length does an incoming req see
system.mem_ctrl.rdQLenPdf::26                       0                       # What read queue length does an incoming req see
system.mem_ctrl.rdQLenPdf::27                       0                       # What read queue length does an incoming req see
system.mem_ctrl.rdQLenPdf::28                       0                       # What read queue length does an incoming req see
system.mem_ctrl.rdQLenPdf::29                       0                       # What read queue length does an incoming req see
system.mem_ctrl.rdQLenPdf::30                       0                       # What read queue length does an incoming req see
system.mem_ctrl.rdQLenPdf::31                       0                       # What read queue length does an incoming req see
system.mem_ctrl.wrQLenPdf::0                        0                       # What write queue length does an incoming req see
system.mem_ctrl.wrQLenPdf::1                        0                       # What write queue length does an incoming req see
system.mem_ctrl.wrQLenPdf::2                        0                       # What write queue length does an incoming req see
system.mem_ctrl.wrQLenPdf::3                        0                       # What write queue length does an incoming req see
system.mem_ctrl.wrQLenPdf::4                        0                       # What write queue length does an incoming req see
system.mem_ctrl.wrQLenPdf::5                        0                       # What write queue length does an incoming req see
system.mem_ctrl.wrQLenPdf::6                        0                       # What write queue length does an incoming req see
system.mem_ctrl.wrQLenPdf::7                        0                       # What write queue length does an incoming req see
system.mem_ctrl.wrQLenPdf::8                        0                       # What write queue length does an incoming req see
system.mem_ctrl.wrQLenPdf::9                        0                       # What write queue length does an incoming req see
system.mem_ctrl.wrQLenPdf::10                       0                       # What write queue length does an incoming req see
system.mem_ctrl.wrQLenPdf::11                       0                       # What write queue length does an incoming req see
system.mem_ctrl.wrQLenPdf::12                       0                       # What write queue length does an incoming req see
system.mem_ctrl.wrQLenPdf::13                       0                       # What write queue length does an incoming req see
system.mem_ctrl.wrQLenPdf::14                       0                       # What write queue length does an incoming req see
system.mem_ctrl.wrQLenPdf::15                       0                       # What write queue length does an incoming req see
system.mem_ctrl.wrQLenPdf::16                       0                       # What write queue length does an incoming req see
system.mem_ctrl.wrQLenPdf::17                       0                       # What write queue length does an incoming req see
system.mem_ctrl.wrQLenPdf::18                       0                       # What write queue length does an incoming req see
system.mem_ctrl.wrQLenPdf::19                       0                       # What write queue length does an incoming req see
system.mem_ctrl.wrQLenPdf::20                       0                       # What write queue length does an incoming req see
system.mem_ctrl.wrQLenPdf::21                       0                       # What write queue length does an incoming req see
system.mem_ctrl.wrQLenPdf::22                       0                       # What write queue length does an incoming req see
system.mem_ctrl.wrQLenPdf::23                       0                       # What write queue length does an incoming req see
system.mem_ctrl.wrQLenPdf::24                       0                       # What write queue length does an incoming req see
system.mem_ctrl.wrQLenPdf::25                       0                       # What write queue length does an incoming req see
system.mem_ctrl.wrQLenPdf::26                       0                       # What write queue length does an incoming req see
system.mem_ctrl.wrQLenPdf::27                       0                       # What write queue length does an incoming req see
system.mem_ctrl.wrQLenPdf::28                       0                       # What write queue length does an incoming req see
system.mem_ctrl.wrQLenPdf::29                       0                       # What write queue length does an incoming req see
system.mem_ctrl.wrQLenPdf::30                       0                       # What write queue length does an incoming req see
system.mem_ctrl.wrQLenPdf::31                       0                       # What write queue length does an incoming req see
system.mem_ctrl.wrQLenPdf::32                       0                       # What write queue length does an incoming req see
system.mem_ctrl.wrQLenPdf::33                       0                       # What write queue length does an incoming req see
system.mem_ctrl.wrQLenPdf::34                       0                       # What write queue length does an incoming req see
system.mem_ctrl.wrQLenPdf::35                       0                       # What write queue length does an incoming req see
system.mem_ctrl.wrQLenPdf::36                       0                       # What write queue length does an incoming req see
system.mem_ctrl.wrQLenPdf::37                       0                       # What write queue length does an incoming req see
system.mem_ctrl.wrQLenPdf::38                       0                       # What write queue length does an incoming req see
system.mem_ctrl.wrQLenPdf::39                       0                       # What write queue length does an incoming req see
system.mem_ctrl.wrQLenPdf::40                       0                       # What write queue length does an incoming req see
system.mem_ctrl.wrQLenPdf::41                       0                       # What write queue length does an incoming req see
system.mem_ctrl.wrQLenPdf::42                       0                       # What write queue length does an incoming req see
system.mem_ctrl.wrQLenPdf::43                       0                       # What write queue length does an incoming req see
system.mem_ctrl.wrQLenPdf::44                       0                       # What write queue length does an incoming req see
system.mem_ctrl.wrQLenPdf::45                       0                       # What write queue length does an incoming req see
system.mem_ctrl.wrQLenPdf::46                       0                       # What write queue length does an incoming req see
system.mem_ctrl.wrQLenPdf::47                       0                       # What write queue length does an incoming req see
system.mem_ctrl.wrQLenPdf::48                       0                       # What write queue length does an incoming req see
system.mem_ctrl.wrQLenPdf::49                       0                       # What write queue length does an incoming req see
system.mem_ctrl.wrQLenPdf::50                       0                       # What write queue length does an incoming req see
system.mem_ctrl.wrQLenPdf::51                       0                       # What write queue length does an incoming req see
system.mem_ctrl.wrQLenPdf::52                       0                       # What write queue length does an incoming req see
system.mem_ctrl.wrQLenPdf::53                       0                       # What write queue length does an incoming req see
system.mem_ctrl.wrQLenPdf::54                       0                       # What write queue length does an incoming req see
system.mem_ctrl.wrQLenPdf::55                       0                       # What write queue length does an incoming req see
system.mem_ctrl.wrQLenPdf::56                       0                       # What write queue length does an incoming req see
system.mem_ctrl.wrQLenPdf::57                       0                       # What write queue length does an incoming req see
system.mem_ctrl.wrQLenPdf::58                       0                       # What write queue length does an incoming req see
system.mem_ctrl.wrQLenPdf::59                       0                       # What write queue length does an incoming req see
system.mem_ctrl.wrQLenPdf::60                       0                       # What write queue length does an incoming req see
system.mem_ctrl.wrQLenPdf::61                       0                       # What write queue length does an incoming req see
system.mem_ctrl.wrQLenPdf::62                       0                       # What write queue length does an incoming req see
system.mem_ctrl.wrQLenPdf::63                       0                       # What write queue length does an incoming req see
system.mem_ctrl.bytesPerActivate::samples         5080                       # Bytes accessed per row activation
system.mem_ctrl.bytesPerActivate::mean     120.327559                       # Bytes accessed per row activation
system.mem_ctrl.bytesPerActivate::gmean    106.791232                       # Bytes accessed per row activation
system.mem_ctrl.bytesPerActivate::stdev     89.208299                       # Bytes accessed per row activation
system.mem_ctrl.bytesPerActivate::0-127          1663     32.74%     32.74% # Bytes accessed per row activation
system.mem_ctrl.bytesPerActivate::128-255         3252     64.02%     96.75% # Bytes accessed per row activation
system.mem_ctrl.bytesPerActivate::256-383           31      0.61%     97.36% # Bytes accessed per row activation
system.mem_ctrl.bytesPerActivate::384-511           43      0.85%     98.21% # Bytes accessed per row activation
system.mem_ctrl.bytesPerActivate::512-639           58      1.14%     99.35% # Bytes accessed per row activation
system.mem_ctrl.bytesPerActivate::640-767            7      0.14%     99.49% # Bytes accessed per row activation
system.mem_ctrl.bytesPerActivate::768-895            5      0.10%     99.59% # Bytes accessed per row activation
system.mem_ctrl.bytesPerActivate::896-1023            5      0.10%     99.69% # Bytes accessed per row activation
system.mem_ctrl.bytesPerActivate::1024-1151           16      0.31%    100.00% # Bytes accessed per row activation
system.mem_ctrl.bytesPerActivate::total          5080                       # Bytes accessed per row activation
system.mem_ctrl.masterReadBytes::.cpu.inst        51328                       # Per-master bytes read from memory
system.mem_ctrl.masterReadBytes::.cpu.data       561792                       # Per-master bytes read from memory
system.mem_ctrl.masterReadRate::.cpu.inst 1417985.905836707680                       # Per-master bytes read from memory rate (Bytes/sec)
system.mem_ctrl.masterReadRate::.cpu.data 15520050.226227706298                       # Per-master bytes read from memory rate (Bytes/sec)
system.mem_ctrl.masterReadAccesses::.cpu.inst          802                       # Per-master read serviced memory accesses
system.mem_ctrl.masterReadAccesses::.cpu.data         8778                       # Per-master read serviced memory accesses
system.mem_ctrl.masterReadTotalLat::.cpu.inst     28048500                       # Per-master read total memory access latency
system.mem_ctrl.masterReadTotalLat::.cpu.data    361019750                       # Per-master read total memory access latency
system.mem_ctrl.masterReadAvgLat::.cpu.inst     34973.19                       # Per-master read average memory access latency
system.mem_ctrl.masterReadAvgLat::.cpu.data     41127.79                       # Per-master read average memory access latency
system.mem_ctrl.totQLat                     209443250                       # Total ticks spent queuing
system.mem_ctrl.totMemAccLat                389068250                       # Total ticks spent from burst creation until serviced by the DRAM
system.mem_ctrl.totBusLat                    47900000                       # Total ticks spent in databus transfers
system.mem_ctrl.avgQLat                      21862.55                       # Average queueing delay per DRAM burst
system.mem_ctrl.avgBusLat                     5000.00                       # Average bus latency per DRAM burst
system.mem_ctrl.avgMemAccLat                 40612.55                       # Average memory access latency per DRAM burst
system.mem_ctrl.avgRdBW                         16.94                       # Average DRAM read bandwidth in MiByte/s
system.mem_ctrl.avgWrBW                          0.00                       # Average achieved write bandwidth in MiByte/s
system.mem_ctrl.avgRdBWSys                      16.94                       # Average system read bandwidth in MiByte/s
system.mem_ctrl.avgWrBWSys                       0.00                       # Average system write bandwidth in MiByte/s
system.mem_ctrl.peakBW                       12800.00                       # Theoretical peak bandwidth in MiByte/s
system.mem_ctrl.busUtil                          0.13                       # Data bus utilization in percentage
system.mem_ctrl.busUtilRead                      0.13                       # Data bus utilization in percentage for reads
system.mem_ctrl.busUtilWrite                     0.00                       # Data bus utilization in percentage for writes
system.mem_ctrl.avgRdQLen                        1.00                       # Average read queue length when enqueuing
system.mem_ctrl.avgWrQLen                        0.00                       # Average write queue length when enqueuing
system.mem_ctrl.readRowHits                      4490                       # Number of row buffer hits during reads
system.mem_ctrl.writeRowHits                        0                       # Number of row buffer hits during writes
system.mem_ctrl.readRowHitRate                  46.87                       # Row buffer hit rate for reads
system.mem_ctrl.writeRowHitRate                   nan                       # Row buffer hit rate for writes
system.mem_ctrl.avgGap                     3778469.42                       # Average gap between requests
system.mem_ctrl.pageHitRate                     46.87                       # Row buffer hit rate, read and write combined
system.mem_ctrl_0.actEnergy                  18114180                       # Energy for activate commands per rank (pJ)
system.mem_ctrl_0.preEnergy                   9605145                       # Energy for precharge commands per rank (pJ)
system.mem_ctrl_0.readEnergy                 34014960                       # Energy for read commands per rank (pJ)
system.mem_ctrl_0.writeEnergy                       0                       # Energy for write commands per rank (pJ)
system.mem_ctrl_0.refreshEnergy          1449321120.000000                       # Energy for refresh commands per rank (pJ)
system.mem_ctrl_0.actBackEnergy             334378530                       # Energy for active background per rank (pJ)
system.mem_ctrl_0.preBackEnergy              33237600                       # Energy for precharge background per rank (pJ)
system.mem_ctrl_0.actPowerDownEnergy       5764802160                       # Energy for active power-down per rank (pJ)
system.mem_ctrl_0.prePowerDownEnergy       1885463520                       # Energy for precharge power-down per rank (pJ)
system.mem_ctrl_0.selfRefreshEnergy        4294761000                       # Energy for self refresh per rank (pJ)
system.mem_ctrl_0.totalEnergy             13823841015                       # Total energy per rank (pJ)
system.mem_ctrl_0.averagePower             381.897049                       # Core power per rank (mW)
system.mem_ctrl_0.totalIdleTime           35377864500                       # Total Idle time Per DRAM Rank
system.mem_ctrl_0.memoryStateTime::IDLE      22254500                       # Time in different power states
system.mem_ctrl_0.memoryStateTime::REF      613080000                       # Time in different power states
system.mem_ctrl_0.memoryStateTime::SREF   17825491500                       # Time in different power states
system.mem_ctrl_0.memoryStateTime::PRE_PDN   4910164250                       # Time in different power states
system.mem_ctrl_0.memoryStateTime::ACT      184581250                       # Time in different power states
system.mem_ctrl_0.memoryStateTime::ACT_PDN  12642249500                       # Time in different power states
system.mem_ctrl_1.actEnergy                  18228420                       # Energy for activate commands per rank (pJ)
system.mem_ctrl_1.preEnergy                   9673455                       # Energy for precharge commands per rank (pJ)
system.mem_ctrl_1.readEnergy                 34386240                       # Energy for read commands per rank (pJ)
system.mem_ctrl_1.writeEnergy                       0                       # Energy for write commands per rank (pJ)
system.mem_ctrl_1.refreshEnergy          1478823840.000000                       # Energy for refresh commands per rank (pJ)
system.mem_ctrl_1.actBackEnergy             339636210                       # Energy for active background per rank (pJ)
system.mem_ctrl_1.preBackEnergy              35024640                       # Energy for precharge background per rank (pJ)
system.mem_ctrl_1.actPowerDownEnergy       5714226060                       # Energy for active power-down per rank (pJ)
system.mem_ctrl_1.prePowerDownEnergy       2066922240                       # Energy for precharge power-down per rank (pJ)
system.mem_ctrl_1.selfRefreshEnergy        4210711080                       # Energy for self refresh per rank (pJ)
system.mem_ctrl_1.totalEnergy             13907744775                       # Total energy per rank (pJ)
system.mem_ctrl_1.averagePower             384.214972                       # Core power per rank (mW)
system.mem_ctrl_1.totalIdleTime           35361668750                       # Total Idle time Per DRAM Rank
system.mem_ctrl_1.memoryStateTime::IDLE      25876000                       # Time in different power states
system.mem_ctrl_1.memoryStateTime::REF      625560000                       # Time in different power states
system.mem_ctrl_1.memoryStateTime::SREF   17447737000                       # Time in different power states
system.mem_ctrl_1.memoryStateTime::PRE_PDN   5383023750                       # Time in different power states
system.mem_ctrl_1.memoryStateTime::ACT      184511500                       # Time in different power states
system.mem_ctrl_1.memoryStateTime::ACT_PDN  12531112750                       # Time in different power states
system.pwrStateResidencyTicks::UNDEFINED  36197821000                       # Cumulative time (in ticks) in various power states
system.cpu.branchPred.lookups                13129058                       # Number of BP lookups
system.cpu.branchPred.condPredicted          13129058                       # Number of conditional branches predicted
system.cpu.branchPred.condIncorrect            264737                       # Number of conditional branches incorrect
system.cpu.branchPred.BTBLookups             11857291                       # Number of BTB lookups
system.cpu.branchPred.BTBHits                       0                       # Number of BTB hits
system.cpu.branchPred.BTBCorrect                    0                       # Number of correct BTB predictions (this stat may not work properly.
system.cpu.branchPred.BTBHitPct              0.000000                       # BTB Hit Percentage
system.cpu.branchPred.usedRAS                  417804                       # Number of times the RAS was used to get a target.
system.cpu.branchPred.RASInCorrect                279                       # Number of incorrect RAS predictions.
system.cpu.branchPred.indirectLookups        11857291                       # Number of indirect predictor lookups.
system.cpu.branchPred.indirectHits            5837012                       # Number of indirect target hits.
system.cpu.branchPred.indirectMisses          6020279                       # Number of indirect misses.
system.cpu.branchPredindirectMispredicted       263721                       # Number of mispredicted indirect branches.
system.cpu.dtb.walker.pwrStateResidencyTicks::UNDEFINED  36197821000                       # Cumulative time (in ticks) in various power states
system.cpu.dtb.rdAccesses                    20095512                       # TLB accesses on read requests
system.cpu.dtb.wrAccesses                     8919049                       # TLB accesses on write requests
system.cpu.dtb.rdMisses                           465                       # TLB misses on read requests
system.cpu.dtb.wrMisses                           326                       # TLB misses on write requests
system.cpu.apic_clk_domain.clock                 8000                       # Clock period in ticks
system.cpu.interrupts.pwrStateResidencyTicks::UNDEFINED  36197821000                       # Cumulative time (in ticks) in various power states
system.cpu.itb.walker.pwrStateResidencyTicks::UNDEFINED  36197821000                       # Cumulative time (in ticks) in various power states
system.cpu.itb.rdAccesses                           0                       # TLB accesses on read requests
system.cpu.itb.wrAccesses                     9603222                       # TLB accesses on write requests
system.cpu.itb.rdMisses                             0                       # TLB misses on read requests
system.cpu.itb.wrMisses                           198                       # TLB misses on write requests
system.cpu.workload.numSyscalls                    36                       # Number of system calls
system.cpu.pwrStateResidencyTicks::ON     36197821000                       # Cumulative time (in ticks) in various power states
system.cpu.numCycles                         72395643                       # number of cpu cycles simulated
system.cpu.numWorkItemsStarted                      0                       # number of work items this cpu started
system.cpu.numWorkItemsCompleted                    0                       # number of work items this cpu completed
system.cpu.fetch.icacheStallCycles             311846                       # Number of cycles fetch is stalled on an Icache miss
system.cpu.fetch.Insts                       74622172                       # Number of instructions fetch has processed
system.cpu.fetch.Branches                    13129058                       # Number of branches that fetch encountered
system.cpu.fetch.predictedBranches            6254816                       # Number of branches that fetch has predicted taken
system.cpu.fetch.Cycles                      71780282                       # Number of cycles fetch has run and was not squashing or blocked
system.cpu.fetch.SquashCycles                  530844                       # Number of cycles fetch has spent squashing
system.cpu.fetch.MiscStallCycles                  103                       # Number of cycles fetch has spent waiting on interrupts, or bad addresses, or out of MSHRs
system.cpu.fetch.PendingTrapStallCycles          1416                       # Number of stall cycles due to pending traps
system.cpu.fetch.PendingQuiesceStallCycles           13                       # Number of stall cycles due to pending quiesce instructions
system.cpu.fetch.IcacheWaitRetryStallCycles            2                       # Number of stall cycles due to full MSHR
system.cpu.fetch.CacheLines                   9603083                       # Number of cache lines fetched
system.cpu.fetch.IcacheSquashes                   574                       # Number of outstanding Icache misses that were squashed
system.cpu.fetch.rateDist::samples           72359084                       # Number of instructions fetched each cycle (Total)
system.cpu.fetch.rateDist::mean              1.833419                       # Number of instructions fetched each cycle (Total)
system.cpu.fetch.rateDist::stdev             1.868356                       # Number of instructions fetched each cycle (Total)
system.cpu.fetch.rateDist::underflows               0      0.00%      0.00% # Number of instructions fetched each cycle (Total)
system.cpu.fetch.rateDist::0                 34179462     47.24%     47.24% # Number of instructions fetched each cycle (Total)
system.cpu.fetch.rateDist::1                  2995532      4.14%     51.38% # Number of instructions fetched each cycle (Total)
system.cpu.fetch.rateDist::2                  3674024      5.08%     56.45% # Number of instructions fetched each cycle (Total)
system.cpu.fetch.rateDist::3                  3719293      5.14%     61.59% # Number of instructions fetched each cycle (Total)
system.cpu.fetch.rateDist::4                 27790773     38.41%    100.00% # Number of instructions fetched each cycle (Total)
system.cpu.fetch.rateDist::overflows                0      0.00%    100.00% # Number of instructions fetched each cycle (Total)
system.cpu.fetch.rateDist::min_value                0                       # Number of instructions fetched each cycle (Total)
system.cpu.fetch.rateDist::max_value                4                       # Number of instructions fetched each cycle (Total)
system.cpu.fetch.rateDist::total             72359084                       # Number of instructions fetched each cycle (Total)
system.cpu.fetch.branchRate                  0.181351                       # Number of branch fetches per cycle
system.cpu.fetch.rate                        1.030755                       # Number of inst fetches per cycle
system.cpu.decode.IdleCycles                  7593114                       # Number of cycles decode is idle
system.cpu.decode.BlockedCycles              32577730                       # Number of cycles decode is blocked
system.cpu.decode.RunCycles                  21514229                       # Number of cycles decode is running
system.cpu.decode.UnblockCycles              10408589                       # Number of cycles decode is unblocking
system.cpu.decode.SquashCycles                 265422                       # Number of cycles decode is squashing
system.cpu.decode.DecodedInsts              123592316                       # Number of instructions handled by decode
system.cpu.decode.SquashedInsts               1290035                       # Number of squashed instructions handled by decode
system.cpu.rename.SquashCycles                 265422                       # Number of cycles rename is squashing
system.cpu.rename.IdleCycles                 14232918                       # Number of cycles rename is idle
system.cpu.rename.BlockCycles                12798702                       # Number of cycles rename is blocking
system.cpu.rename.serializeStallCycles           2482                       # count of cycles rename stalled for serializing inst
system.cpu.rename.RunCycles                  24744860                       # Number of cycles rename is running
system.cpu.rename.UnblockCycles              20314700                       # Number of cycles rename is unblocking
system.cpu.rename.RenamedInsts              122108888                       # Number of instructions processed by rename
system.cpu.rename.SquashedInsts                500059                       # Number of squashed instructions processed by rename
system.cpu.rename.ROBFullEvents                  6691                       # Number of times rename has blocked due to ROB full
system.cpu.rename.IQFullEvents               13192352                       # Number of times rename has blocked due to IQ full
system.cpu.rename.LQFullEvents                     92                       # Number of times rename has blocked due to LQ full
system.cpu.rename.SQFullEvents                3884217                       # Number of times rename has blocked due to SQ full
system.cpu.rename.RenamedOperands           144103005                       # Number of destination operands rename has renamed
system.cpu.rename.RenameLookups             299114798                       # Number of register rename lookups that rename has made
system.cpu.rename.int_rename_lookups        187654794                       # Number of integer rename lookups
system.cpu.rename.fp_rename_lookups            266428                       # Number of floating rename lookups
system.cpu.rename.CommittedMaps             130921918                       # Number of HB maps that are committed
system.cpu.rename.UndoneMaps                 13181087                       # Number of HB maps that are undone due to squashing
system.cpu.rename.serializingInsts                 63                       # count of serializing insts renamed
system.cpu.rename.tempSerializingInsts             61                       # count of temporary serializing insts renamed
system.cpu.rename.skidInsts                  33255258                       # count of insts added to the skid buffer
system.cpu.memDep0.insertedLoads             20627430                       # Number of loads inserted to the mem dependence unit.
system.cpu.memDep0.insertedStores             9541873                       # Number of stores inserted to the mem dependence unit.
system.cpu.memDep0.conflictingLoads           6549966                       # Number of conflicting loads.
system.cpu.memDep0.conflictingStores          1673828                       # Number of conflicting stores.
system.cpu.iq.iqInstsAdded                  120446730                       # Number of instructions added to the IQ (excludes non-spec)
system.cpu.iq.iqNonSpecInstsAdded                 328                       # Number of non-speculative instructions added to the IQ
system.cpu.iq.iqInstsIssued                 115782427                       # Number of instructions issued
system.cpu.iq.iqSquashedInstsIssued           1537443                       # Number of squashed instructions issued
system.cpu.iq.iqSquashedInstsExamined        10407372                       # Number of squashed instructions iterated over during squash; mainly for profiling
system.cpu.iq.iqSquashedOperandsExamined     14729949                       # Number of squashed operands that are examined and possibly removed from graph
system.cpu.iq.iqSquashedNonSpecRemoved            292                       # Number of squashed non-spec instructions that were removed
system.cpu.iq.issued_per_cycle::samples      72359084                       # Number of insts issued each cycle
system.cpu.iq.issued_per_cycle::mean         1.600109                       # Number of insts issued each cycle
system.cpu.iq.issued_per_cycle::stdev        1.067377                       # Number of insts issued each cycle
system.cpu.iq.issued_per_cycle::underflows            0      0.00%      0.00% # Number of insts issued each cycle
system.cpu.iq.issued_per_cycle::0            15770608     21.79%     21.79% # Number of insts issued each cycle
system.cpu.iq.issued_per_cycle::1            13968023     19.30%     41.10% # Number of insts issued each cycle
system.cpu.iq.issued_per_cycle::2            26239670     36.26%     77.36% # Number of insts issued each cycle
system.cpu.iq.issued_per_cycle::3            16188068     22.37%     99.73% # Number of insts issued each cycle
system.cpu.iq.issued_per_cycle::4              192715      0.27%    100.00% # Number of insts issued each cycle
system.cpu.iq.issued_per_cycle::overflows            0      0.00%    100.00% # Number of insts issued each cycle
system.cpu.iq.issued_per_cycle::min_value            0                       # Number of insts issued each cycle
system.cpu.iq.issued_per_cycle::max_value            4                       # Number of insts issued each cycle
system.cpu.iq.issued_per_cycle::total        72359084                       # Number of insts issued each cycle
system.cpu.iq.fu_full::No_OpClass                   0      0.00%      0.00% # attempts to use FU when none available
system.cpu.iq.fu_full::IntAlu                27665262     69.53%     69.53% # attempts to use FU when none available
system.cpu.iq.fu_full::IntMult                      0      0.00%     69.53% # attempts to use FU when none available
system.cpu.iq.fu_full::IntDiv                       0      0.00%     69.53% # attempts to use FU when none available
system.cpu.iq.fu_full::FloatAdd                     0      0.00%     69.53% # attempts to use FU when none available
system.cpu.iq.fu_full::FloatCmp                     0      0.00%     69.53% # attempts to use FU when none available
system.cpu.iq.fu_full::FloatCvt                     0      0.00%     69.53% # attempts to use FU when none available
system.cpu.iq.fu_full::FloatMult                    0      0.00%     69.53% # attempts to use FU when none available
system.cpu.iq.fu_full::FloatMultAcc                 0      0.00%     69.53% # attempts to use FU when none available
system.cpu.iq.fu_full::FloatDiv                     0      0.00%     69.53% # attempts to use FU when none available
system.cpu.iq.fu_full::FloatMisc                    0      0.00%     69.53% # attempts to use FU when none available
system.cpu.iq.fu_full::FloatSqrt                    0      0.00%     69.53% # attempts to use FU when none available
system.cpu.iq.fu_full::SimdAdd                    265      0.00%     69.53% # attempts to use FU when none available
system.cpu.iq.fu_full::SimdAddAcc                   0      0.00%     69.53% # attempts to use FU when none available
system.cpu.iq.fu_full::SimdAlu                     70      0.00%     69.53% # attempts to use FU when none available
system.cpu.iq.fu_full::SimdCmp                      0      0.00%     69.53% # attempts to use FU when none available
system.cpu.iq.fu_full::SimdCvt                     64      0.00%     69.53% # attempts to use FU when none available
system.cpu.iq.fu_full::SimdMisc                   146      0.00%     69.53% # attempts to use FU when none available
system.cpu.iq.fu_full::SimdMult                     0      0.00%     69.53% # attempts to use FU when none available
system.cpu.iq.fu_full::SimdMultAcc                  0      0.00%     69.53% # attempts to use FU when none available
system.cpu.iq.fu_full::SimdShift                  124      0.00%     69.53% # attempts to use FU when none available
system.cpu.iq.fu_full::SimdShiftAcc                 0      0.00%     69.53% # attempts to use FU when none available
system.cpu.iq.fu_full::SimdSqrt                     0      0.00%     69.53% # attempts to use FU when none available
system.cpu.iq.fu_full::SimdFloatAdd                 0      0.00%     69.53% # attempts to use FU when none available
system.cpu.iq.fu_full::SimdFloatAlu                 0      0.00%     69.53% # attempts to use FU when none available
system.cpu.iq.fu_full::SimdFloatCmp                 0      0.00%     69.53% # attempts to use FU when none available
system.cpu.iq.fu_full::SimdFloatCvt                 0      0.00%     69.53% # attempts to use FU when none available
system.cpu.iq.fu_full::SimdFloatDiv                 0      0.00%     69.53% # attempts to use FU when none available
system.cpu.iq.fu_full::SimdFloatMisc                0      0.00%     69.53% # attempts to use FU when none available
system.cpu.iq.fu_full::SimdFloatMult                0      0.00%     69.53% # attempts to use FU when none available
system.cpu.iq.fu_full::SimdFloatMultAcc             0      0.00%     69.53% # attempts to use FU when none available
system.cpu.iq.fu_full::SimdFloatSqrt                0      0.00%     69.53% # attempts to use FU when none available
system.cpu.iq.fu_full::SimdAes                      0      0.00%     69.53% # attempts to use FU when none available
system.cpu.iq.fu_full::SimdAesMix                   0      0.00%     69.53% # attempts to use FU when none available
system.cpu.iq.fu_full::SimdSha1Hash                 0      0.00%     69.53% # attempts to use FU when none available
system.cpu.iq.fu_full::SimdSha1Hash2                0      0.00%     69.53% # attempts to use FU when none available
system.cpu.iq.fu_full::SimdSha256Hash               0      0.00%     69.53% # attempts to use FU when none available
system.cpu.iq.fu_full::SimdSha256Hash2              0      0.00%     69.53% # attempts to use FU when none available
system.cpu.iq.fu_full::SimdShaSigma2                0      0.00%     69.53% # attempts to use FU when none available
system.cpu.iq.fu_full::SimdShaSigma3                0      0.00%     69.53% # attempts to use FU when none available
system.cpu.iq.fu_full::MemRead               10139591     25.48%     95.02% # attempts to use FU when none available
system.cpu.iq.fu_full::MemWrite               1983205      4.98%    100.00% # attempts to use FU when none available
system.cpu.iq.fu_full::FloatMemRead                 0      0.00%    100.00% # attempts to use FU when none available
system.cpu.iq.fu_full::FloatMemWrite                0      0.00%    100.00% # attempts to use FU when none available
system.cpu.iq.fu_full::IprAccess                    0      0.00%    100.00% # attempts to use FU when none available
system.cpu.iq.fu_full::InstPrefetch                 0      0.00%    100.00% # attempts to use FU when none available
system.cpu.iq.FU_type_0::No_OpClass            241406      0.21%      0.21% # Type of FU issued
system.cpu.iq.FU_type_0::IntAlu              85516734     73.86%     74.07% # Type of FU issued
system.cpu.iq.FU_type_0::IntMult               646197      0.56%     74.63% # Type of FU issued
system.cpu.iq.FU_type_0::IntDiv                    31      0.00%     74.63% # Type of FU issued
system.cpu.iq.FU_type_0::FloatAdd               65557      0.06%     74.68% # Type of FU issued
system.cpu.iq.FU_type_0::FloatCmp                   0      0.00%     74.68% # Type of FU issued
system.cpu.iq.FU_type_0::FloatCvt                   0      0.00%     74.68% # Type of FU issued
system.cpu.iq.FU_type_0::FloatMult                  0      0.00%     74.68% # Type of FU issued
system.cpu.iq.FU_type_0::FloatMultAcc               0      0.00%     74.68% # Type of FU issued
system.cpu.iq.FU_type_0::FloatDiv                   0      0.00%     74.68% # Type of FU issued
system.cpu.iq.FU_type_0::FloatMisc                  0      0.00%     74.68% # Type of FU issued
system.cpu.iq.FU_type_0::FloatSqrt                  0      0.00%     74.68% # Type of FU issued
system.cpu.iq.FU_type_0::SimdAdd                  377      0.00%     74.68% # Type of FU issued
system.cpu.iq.FU_type_0::SimdAddAcc                 0      0.00%     74.68% # Type of FU issued
system.cpu.iq.FU_type_0::SimdAlu                   99      0.00%     74.68% # Type of FU issued
system.cpu.iq.FU_type_0::SimdCmp                    0      0.00%     74.68% # Type of FU issued
system.cpu.iq.FU_type_0::SimdCvt                  148      0.00%     74.68% # Type of FU issued
system.cpu.iq.FU_type_0::SimdMisc                 258      0.00%     74.68% # Type of FU issued
system.cpu.iq.FU_type_0::SimdMult                   0      0.00%     74.68% # Type of FU issued
system.cpu.iq.FU_type_0::SimdMultAcc                0      0.00%     74.68% # Type of FU issued
system.cpu.iq.FU_type_0::SimdShift                186      0.00%     74.68% # Type of FU issued
system.cpu.iq.FU_type_0::SimdShiftAcc               0      0.00%     74.68% # Type of FU issued
system.cpu.iq.FU_type_0::SimdSqrt                   0      0.00%     74.68% # Type of FU issued
system.cpu.iq.FU_type_0::SimdFloatAdd               0      0.00%     74.68% # Type of FU issued
system.cpu.iq.FU_type_0::SimdFloatAlu               0      0.00%     74.68% # Type of FU issued
system.cpu.iq.FU_type_0::SimdFloatCmp               0      0.00%     74.68% # Type of FU issued
system.cpu.iq.FU_type_0::SimdFloatCvt               0      0.00%     74.68% # Type of FU issued
system.cpu.iq.FU_type_0::SimdFloatDiv               0      0.00%     74.68% # Type of FU issued
system.cpu.iq.FU_type_0::SimdFloatMisc              0      0.00%     74.68% # Type of FU issued
system.cpu.iq.FU_type_0::SimdFloatMult              0      0.00%     74.68% # Type of FU issued
system.cpu.iq.FU_type_0::SimdFloatMultAcc            0      0.00%     74.68% # Type of FU issued
system.cpu.iq.FU_type_0::SimdFloatSqrt              0      0.00%     74.68% # Type of FU issued
system.cpu.iq.FU_type_0::SimdAes                    0      0.00%     74.68% # Type of FU issued
system.cpu.iq.FU_type_0::SimdAesMix                 0      0.00%     74.68% # Type of FU issued
system.cpu.iq.FU_type_0::SimdSha1Hash               0      0.00%     74.68% # Type of FU issued
system.cpu.iq.FU_type_0::SimdSha1Hash2              0      0.00%     74.68% # Type of FU issued
system.cpu.iq.FU_type_0::SimdSha256Hash             0      0.00%     74.68% # Type of FU issued
system.cpu.iq.FU_type_0::SimdSha256Hash2            0      0.00%     74.68% # Type of FU issued
system.cpu.iq.FU_type_0::SimdShaSigma2              0      0.00%     74.68% # Type of FU issued
system.cpu.iq.FU_type_0::SimdShaSigma3              0      0.00%     74.68% # Type of FU issued
system.cpu.iq.FU_type_0::MemRead             19993988     17.27%     91.95% # Type of FU issued
system.cpu.iq.FU_type_0::MemWrite             8792458      7.59%     99.55% # Type of FU issued
system.cpu.iq.FU_type_0::FloatMemRead          262302      0.23%     99.77% # Type of FU issued
system.cpu.iq.FU_type_0::FloatMemWrite         262686      0.23%    100.00% # Type of FU issued
system.cpu.iq.FU_type_0::IprAccess                  0      0.00%    100.00% # Type of FU issued
system.cpu.iq.FU_type_0::InstPrefetch               0      0.00%    100.00% # Type of FU issued
system.cpu.iq.FU_type_0::total              115782427                       # Type of FU issued
system.cpu.iq.rate                           1.599301                       # Inst issue rate
system.cpu.iq.fu_busy_cnt                    39788727                       # FU busy when requested
system.cpu.iq.fu_busy_rate                   0.343651                       # FU busy rate (busy events/executed inst)
system.cpu.iq.int_inst_queue_reads          344065051                       # Number of integer instruction queue reads
system.cpu.iq.int_inst_queue_writes         130262584                       # Number of integer instruction queue writes
system.cpu.iq.int_inst_queue_wakeup_accesses    113780559                       # Number of integer instruction queue wakeup accesses
system.cpu.iq.fp_inst_queue_reads             1185057                       # Number of floating instruction queue reads
system.cpu.iq.fp_inst_queue_writes             592472                       # Number of floating instruction queue writes
system.cpu.iq.fp_inst_queue_wakeup_accesses       592101                       # Number of floating instruction queue wakeup accesses
system.cpu.iq.vec_inst_queue_reads                  0                       # Number of vector instruction queue reads
system.cpu.iq.vec_inst_queue_writes                 0                       # Number of vector instruction queue writes
system.cpu.iq.vec_inst_queue_wakeup_accesses            0                       # Number of vector instruction queue wakeup accesses
system.cpu.iq.int_alu_accesses              154736840                       # Number of integer alu accesses
system.cpu.iq.fp_alu_accesses                  592908                       # Number of floating point alu accesses
system.cpu.iq.vec_alu_accesses                      0                       # Number of vector alu accesses
system.cpu.iew.lsq.thread0.forwLoads          2544575                       # Number of loads that had data forwarded from stores
system.cpu.iew.lsq.thread0.invAddrLoads             0                       # Number of loads ignored due to an invalid address
system.cpu.iew.lsq.thread0.squashedLoads      1577548                       # Number of loads squashed
system.cpu.iew.lsq.thread0.ignoredResponses        22054                       # Number of memory responses ignored because the instruction is squashed
system.cpu.iew.lsq.thread0.memOrderViolation          626                       # Number of memory ordering violations
system.cpu.iew.lsq.thread0.squashedStores       890349                       # Number of stores squashed
system.cpu.iew.lsq.thread0.invAddrSwpfs             0                       # Number of software prefetches ignored due to an invalid address
system.cpu.iew.lsq.thread0.blockedLoads             0                       # Number of blocked loads due to partial load-store forwarding
system.cpu.iew.lsq.thread0.rescheduledLoads            1                       # Number of loads that were rescheduled
system.cpu.iew.lsq.thread0.cacheBlocked            66                       # Number of times an access to memory failed due to the cache being blocked
system.cpu.iew.iewIdleCycles                        0                       # Number of cycles IEW is idle
system.cpu.iew.iewSquashCycles                 265422                       # Number of cycles IEW is squashing
system.cpu.iew.iewBlockCycles                 2594629                       # Number of cycles IEW is blocking
system.cpu.iew.iewUnblockCycles                964174                       # Number of cycles IEW is unblocking
system.cpu.iew.iewDispatchedInsts           120447058                       # Number of instructions dispatched to IQ
system.cpu.iew.iewDispSquashedInsts            266133                       # Number of squashed instructions skipped by dispatch
system.cpu.iew.iewDispLoadInsts              20627430                       # Number of dispatched load instructions
system.cpu.iew.iewDispStoreInsts              9541873                       # Number of dispatched store instructions
system.cpu.iew.iewDispNonSpecInsts                142                       # Number of dispatched non-speculative instructions
system.cpu.iew.iewIQFullEvents                 670641                       # Number of times the IQ has become full, causing a stall
system.cpu.iew.iewLSQFullEvents                  6710                       # Number of times the LSQ has become full, causing a stall
system.cpu.iew.memOrderViolationEvents            626                       # Number of memory order violations
system.cpu.iew.predictedTakenIncorrect            904                       # Number of branches that were predicted taken incorrectly
system.cpu.iew.predictedNotTakenIncorrect       307745                       # Number of branches that were predicted not taken incorrectly
system.cpu.iew.branchMispredicts               308649                       # Number of branch mispredicts detected at execute
system.cpu.iew.iewExecutedInsts             114571612                       # Number of executed instructions
system.cpu.iew.iewExecLoadInsts              20095496                       # Number of load instructions executed
system.cpu.iew.iewExecSquashedInsts           1210815                       # Number of squashed instructions skipped in execute
system.cpu.iew.exec_swp                             0                       # number of swp insts executed
system.cpu.iew.exec_nop                             0                       # number of nop insts executed
system.cpu.iew.exec_refs                     29011825                       # number of memory reference insts executed
system.cpu.iew.exec_branches                 10850967                       # Number of branches executed
system.cpu.iew.exec_stores                    8916329                       # Number of stores executed
system.cpu.iew.exec_rate                     1.582576                       # Inst execution rate
system.cpu.iew.wb_sent                      114373027                       # cumulative count of insts sent to commit
system.cpu.iew.wb_count                     114372660                       # cumulative count of insts written-back
system.cpu.iew.wb_producers                  86456251                       # num instructions producing a value
system.cpu.iew.wb_consumers                 125735267                       # num instructions consuming a value
system.cpu.iew.wb_rate                       1.579828                       # insts written-back per cycle
system.cpu.iew.wb_fanout                     0.687605                       # average fanout of values written-back
system.cpu.commit.commitSquashedInsts         9800897                       # The number of squashed insts skipped by commit
system.cpu.commit.commitNonSpecStalls              36                       # The number of times commit has been forced to stall to communicate backwards
system.cpu.commit.branchMispredicts            264817                       # The number of times a branch was mispredicted
system.cpu.commit.committed_per_cycle::samples     71910291                       # Number of insts commited each cycle
system.cpu.commit.committed_per_cycle::mean     1.530236                       # Number of insts commited each cycle
system.cpu.commit.committed_per_cycle::stdev     1.650017                       # Number of insts commited each cycle
system.cpu.commit.committed_per_cycle::underflows            0      0.00%      0.00% # Number of insts commited each cycle
system.cpu.commit.committed_per_cycle::0     31767678     44.18%     44.18% # Number of insts commited each cycle
system.cpu.commit.committed_per_cycle::1     10847606     15.08%     59.26% # Number of insts commited each cycle
system.cpu.commit.committed_per_cycle::2      5257138      7.31%     66.57% # Number of insts commited each cycle
system.cpu.commit.committed_per_cycle::3      7473673     10.39%     76.97% # Number of insts commited each cycle
system.cpu.commit.committed_per_cycle::4     16564196     23.03%    100.00% # Number of insts commited each cycle
system.cpu.commit.committed_per_cycle::overflows            0      0.00%    100.00% # Number of insts commited each cycle
system.cpu.commit.committed_per_cycle::min_value            0                       # Number of insts commited each cycle
system.cpu.commit.committed_per_cycle::max_value            4                       # Number of insts commited each cycle
system.cpu.commit.committed_per_cycle::total     71910291                       # Number of insts commited each cycle
system.cpu.commit.committedInsts             62525833                       # Number of instructions committed
system.cpu.commit.committedOps              110039685                       # Number of ops (including micro ops) committed
system.cpu.commit.swp_count                         0                       # Number of s/w prefetches committed
system.cpu.commit.refs                       27701406                       # Number of memory references committed
system.cpu.commit.loads                      19049882                       # Number of loads committed
system.cpu.commit.membars                           0                       # Number of memory barriers committed
system.cpu.commit.branches                   10575287                       # Number of branches committed
system.cpu.commit.vec_insts                         0                       # Number of committed Vector instructions.
system.cpu.commit.fp_insts                     591928                       # Number of committed floating point instructions.
system.cpu.commit.int_insts                 109906472                       # Number of committed integer instructions.
system.cpu.commit.function_calls               329514                       # Number of function calls committed.
system.cpu.commit.op_class_0::No_OpClass        66156      0.06%      0.06% # Class of committed instruction
system.cpu.commit.op_class_0::IntAlu         81559305     74.12%     74.18% # Class of committed instruction
system.cpu.commit.op_class_0::IntMult          646190      0.59%     74.77% # Class of committed instruction
system.cpu.commit.op_class_0::IntDiv               28      0.00%     74.77% # Class of committed instruction
system.cpu.commit.op_class_0::FloatAdd          65551      0.06%     74.83% # Class of committed instruction
system.cpu.commit.op_class_0::FloatCmp              0      0.00%     74.83% # Class of committed instruction
system.cpu.commit.op_class_0::FloatCvt              0      0.00%     74.83% # Class of committed instruction
system.cpu.commit.op_class_0::FloatMult             0      0.00%     74.83% # Class of committed instruction
system.cpu.commit.op_class_0::FloatMultAcc            0      0.00%     74.83% # Class of committed instruction
system.cpu.commit.op_class_0::FloatDiv              0      0.00%     74.83% # Class of committed instruction
system.cpu.commit.op_class_0::FloatMisc             0      0.00%     74.83% # Class of committed instruction
system.cpu.commit.op_class_0::FloatSqrt             0      0.00%     74.83% # Class of committed instruction
system.cpu.commit.op_class_0::SimdAdd             374      0.00%     74.83% # Class of committed instruction
system.cpu.commit.op_class_0::SimdAddAcc            0      0.00%     74.83% # Class of committed instruction
system.cpu.commit.op_class_0::SimdAlu              94      0.00%     74.83% # Class of committed instruction
system.cpu.commit.op_class_0::SimdCmp               0      0.00%     74.83% # Class of committed instruction
system.cpu.commit.op_class_0::SimdCvt             140      0.00%     74.83% # Class of committed instruction
system.cpu.commit.op_class_0::SimdMisc            255      0.00%     74.83% # Class of committed instruction
system.cpu.commit.op_class_0::SimdMult              0      0.00%     74.83% # Class of committed instruction
system.cpu.commit.op_class_0::SimdMultAcc            0      0.00%     74.83% # Class of committed instruction
system.cpu.commit.op_class_0::SimdShift           186      0.00%     74.83% # Class of committed instruction
system.cpu.commit.op_class_0::SimdShiftAcc            0      0.00%     74.83% # Class of committed instruction
system.cpu.commit.op_class_0::SimdSqrt              0      0.00%     74.83% # Class of committed instruction
system.cpu.commit.op_class_0::SimdFloatAdd            0      0.00%     74.83% # Class of committed instruction
system.cpu.commit.op_class_0::SimdFloatAlu            0      0.00%     74.83% # Class of committed instruction
system.cpu.commit.op_class_0::SimdFloatCmp            0      0.00%     74.83% # Class of committed instruction
system.cpu.commit.op_class_0::SimdFloatCvt            0      0.00%     74.83% # Class of committed instruction
system.cpu.commit.op_class_0::SimdFloatDiv            0      0.00%     74.83% # Class of committed instruction
system.cpu.commit.op_class_0::SimdFloatMisc            0      0.00%     74.83% # Class of committed instruction
system.cpu.commit.op_class_0::SimdFloatMult            0      0.00%     74.83% # Class of committed instruction
system.cpu.commit.op_class_0::SimdFloatMultAcc            0      0.00%     74.83% # Class of committed instruction
system.cpu.commit.op_class_0::SimdFloatSqrt            0      0.00%     74.83% # Class of committed instruction
system.cpu.commit.op_class_0::SimdAes               0      0.00%     74.83% # Class of committed instruction
system.cpu.commit.op_class_0::SimdAesMix            0      0.00%     74.83% # Class of committed instruction
system.cpu.commit.op_class_0::SimdSha1Hash            0      0.00%     74.83% # Class of committed instruction
system.cpu.commit.op_class_0::SimdSha1Hash2            0      0.00%     74.83% # Class of committed instruction
system.cpu.commit.op_class_0::SimdSha256Hash            0      0.00%     74.83% # Class of committed instruction
system.cpu.commit.op_class_0::SimdSha256Hash2            0      0.00%     74.83% # Class of committed instruction
system.cpu.commit.op_class_0::SimdShaSigma2            0      0.00%     74.83% # Class of committed instruction
system.cpu.commit.op_class_0::SimdShaSigma3            0      0.00%     74.83% # Class of committed instruction
system.cpu.commit.op_class_0::MemRead        18787650     17.07%     91.90% # Class of committed instruction
system.cpu.commit.op_class_0::MemWrite        8388953      7.62%     99.52% # Class of committed instruction
system.cpu.commit.op_class_0::FloatMemRead       262232      0.24%     99.76% # Class of committed instruction
system.cpu.commit.op_class_0::FloatMemWrite       262571      0.24%    100.00% # Class of committed instruction
system.cpu.commit.op_class_0::IprAccess             0      0.00%    100.00% # Class of committed instruction
system.cpu.commit.op_class_0::InstPrefetch            0      0.00%    100.00% # Class of committed instruction
system.cpu.commit.op_class_0::total         110039685                       # Class of committed instruction
system.cpu.commit.bw_lim_events              16564196                       # number cycles where commit BW limit reached
system.cpu.rob.rob_reads                    175186677                       # The number of ROB reads
system.cpu.rob.rob_writes                   240129957                       # The number of ROB writes
system.cpu.timesIdled                             440                       # Number of times that the entire CPU went into an idle state and unscheduled itself
system.cpu.idleCycles                           36559                       # Total number of cycles that the CPU has spent unscheduled due to idling
system.cpu.committedInsts                    62525833                       # Number of Instructions Simulated
system.cpu.committedOps                     110039685                       # Number of Ops (including micro ops) Simulated
system.cpu.cpi                               1.157852                       # CPI: Cycles Per Instruction
system.cpu.cpi_total                         1.157852                       # CPI: Total CPI of All Threads
system.cpu.ipc                               0.863668                       # IPC: Instructions Per Cycle
system.cpu.ipc_total                         0.863668                       # IPC: Total IPC of All Threads
system.cpu.int_regfile_reads                175747321                       # number of integer regfile reads
system.cpu.int_regfile_writes                94681062                       # number of integer regfile writes
system.cpu.fp_regfile_reads                    266310                       # number of floating regfile reads
system.cpu.fp_regfile_writes                   329353                       # number of floating regfile writes
system.cpu.cc_regfile_reads                  51582897                       # number of cc regfile reads
system.cpu.cc_regfile_writes                 40540535                       # number of cc regfile writes
system.cpu.misc_regfile_reads                51704121                       # number of misc regfile reads
system.cpu.dcache.tags.pwrStateResidencyTicks::UNDEFINED  36197821000                       # Cumulative time (in ticks) in various power states
system.cpu.dcache.tags.tagsinuse           511.395640                       # Cycle average of tags in use
system.cpu.dcache.tags.total_refs            26201916                       # Total number of references to valid blocks.
system.cpu.dcache.tags.sampled_refs             15243                       # Sample count of references to valid blocks.
system.cpu.dcache.tags.avg_refs           1718.947451                       # Average number of references to valid blocks.
system.cpu.dcache.tags.warmup_cycle            169500                       # Cycle when the warmup percentage was hit.
system.cpu.dcache.tags.occ_blocks::.cpu.data   511.395640                       # Average occupied blocks per requestor
system.cpu.dcache.tags.occ_percent::.cpu.data     0.998820                       # Average percentage of cache occupancy
system.cpu.dcache.tags.occ_percent::total     0.998820                       # Average percentage of cache occupancy
system.cpu.dcache.tags.occ_task_id_blocks::1024          512                       # Occupied blocks per task id
system.cpu.dcache.tags.age_task_id_blocks_1024::0          136                       # Occupied blocks per task id
system.cpu.dcache.tags.age_task_id_blocks_1024::1          374                       # Occupied blocks per task id
system.cpu.dcache.tags.age_task_id_blocks_1024::4            2                       # Occupied blocks per task id
system.cpu.dcache.tags.occ_task_id_percent::1024            1                       # Percentage of cache occupancy per task id
system.cpu.dcache.tags.tag_accesses         209633147                       # Number of tag accesses
system.cpu.dcache.tags.data_accesses        209633147                       # Number of data accesses
system.cpu.dcache.pwrStateResidencyTicks::UNDEFINED  36197821000                       # Cumulative time (in ticks) in various power states
system.cpu.dcache.ReadReq_hits::.cpu.data     17544162                       # number of ReadReq hits
system.cpu.dcache.ReadReq_hits::total        17544162                       # number of ReadReq hits
system.cpu.dcache.WriteReq_hits::.cpu.data      8641943                       # number of WriteReq hits
system.cpu.dcache.WriteReq_hits::total        8641943                       # number of WriteReq hits
system.cpu.dcache.demand_hits::.cpu.data     26186105                       # number of demand (read+write) hits
system.cpu.dcache.demand_hits::total         26186105                       # number of demand (read+write) hits
system.cpu.dcache.overall_hits::.cpu.data     26186105                       # number of overall hits
system.cpu.dcache.overall_hits::total        26186105                       # number of overall hits
system.cpu.dcache.ReadReq_misses::.cpu.data         6552                       # number of ReadReq misses
system.cpu.dcache.ReadReq_misses::total          6552                       # number of ReadReq misses
system.cpu.dcache.WriteReq_misses::.cpu.data         9581                       # number of WriteReq misses
system.cpu.dcache.WriteReq_misses::total         9581                       # number of WriteReq misses
system.cpu.dcache.demand_misses::.cpu.data        16133                       # number of demand (read+write) misses
system.cpu.dcache.demand_misses::total          16133                       # number of demand (read+write) misses
system.cpu.dcache.overall_misses::.cpu.data        16133                       # number of overall misses
system.cpu.dcache.overall_misses::total         16133                       # number of overall misses
system.cpu.dcache.ReadReq_miss_latency::.cpu.data    250344000                       # number of ReadReq miss cycles
system.cpu.dcache.ReadReq_miss_latency::total    250344000                       # number of ReadReq miss cycles
system.cpu.dcache.WriteReq_miss_latency::.cpu.data    786198999                       # number of WriteReq miss cycles
system.cpu.dcache.WriteReq_miss_latency::total    786198999                       # number of WriteReq miss cycles
system.cpu.dcache.demand_miss_latency::.cpu.data   1036542999                       # number of demand (read+write) miss cycles
system.cpu.dcache.demand_miss_latency::total   1036542999                       # number of demand (read+write) miss cycles
system.cpu.dcache.overall_miss_latency::.cpu.data   1036542999                       # number of overall miss cycles
system.cpu.dcache.overall_miss_latency::total   1036542999                       # number of overall miss cycles
system.cpu.dcache.ReadReq_accesses::.cpu.data     17550714                       # number of ReadReq accesses(hits+misses)
system.cpu.dcache.ReadReq_accesses::total     17550714                       # number of ReadReq accesses(hits+misses)
system.cpu.dcache.WriteReq_accesses::.cpu.data      8651524                       # number of WriteReq accesses(hits+misses)
system.cpu.dcache.WriteReq_accesses::total      8651524                       # number of WriteReq accesses(hits+misses)
system.cpu.dcache.demand_accesses::.cpu.data     26202238                       # number of demand (read+write) accesses
system.cpu.dcache.demand_accesses::total     26202238                       # number of demand (read+write) accesses
system.cpu.dcache.overall_accesses::.cpu.data     26202238                       # number of overall (read+write) accesses
system.cpu.dcache.overall_accesses::total     26202238                       # number of overall (read+write) accesses
system.cpu.dcache.ReadReq_miss_rate::.cpu.data     0.000373                       # miss rate for ReadReq accesses
system.cpu.dcache.ReadReq_miss_rate::total     0.000373                       # miss rate for ReadReq accesses
system.cpu.dcache.WriteReq_miss_rate::.cpu.data     0.001107                       # miss rate for WriteReq accesses
system.cpu.dcache.WriteReq_miss_rate::total     0.001107                       # miss rate for WriteReq accesses
system.cpu.dcache.demand_miss_rate::.cpu.data     0.000616                       # miss rate for demand accesses
system.cpu.dcache.demand_miss_rate::total     0.000616                       # miss rate for demand accesses
system.cpu.dcache.overall_miss_rate::.cpu.data     0.000616                       # miss rate for overall accesses
system.cpu.dcache.overall_miss_rate::total     0.000616                       # miss rate for overall accesses
[...]
system.l3cache.tags.occ_percent::.cpu.data     0.144624                       # Average percentage of cache occupancy
system.l3cache.tags.occ_percent::total       0.166121                       # Average percentage of cache occupancy
system.l3cache.tags.occ_task_id_blocks::1024         9580                       # Occupied blocks per task id
system.l3cache.tags.age_task_id_blocks_1024::0           66                       # Occupied blocks per task id
system.l3cache.tags.age_task_id_blocks_1024::1           25                       # Occupied blocks per task id
system.l3cache.tags.age_task_id_blocks_1024::2          209                       # Occupied blocks per task id
system.l3cache.tags.age_task_id_blocks_1024::3         2077                       # Occupied blocks per task id
system.l3cache.tags.age_task_id_blocks_1024::4         7203                       # Occupied blocks per task id
system.l3cache.tags.occ_task_id_percent::1024     0.292358                       # Percentage of cache occupancy per task id
system.l3cache.tags.tag_accesses               394588                       # Number of tag accesses
system.l3cache.tags.data_accesses              394588                       # Number of data accesses
system.l3cache.pwrStateResidencyTicks::UNDEFINED  36197821000                       # Cumulative time (in ticks) in various power states
system.l3cache.WritebackDirty_hits::.writebacks         9490                       # number of WritebackDirty hits
system.l3cache.WritebackDirty_hits::total         9490                       # number of WritebackDirty hits
system.l3cache.ReadExReq_hits::.cpu.data          312                       # number of ReadExReq hits
system.l3cache.ReadExReq_hits::total              312                       # number of ReadExReq hits
system.l3cache.ReadSharedReq_hits::.cpu.inst           19                       # number of ReadSharedReq hits
system.l3cache.ReadSharedReq_hits::.cpu.data         4662                       # number of ReadSharedReq hits
system.l3cache.ReadSharedReq_hits::total         4681                       # number of ReadSharedReq hits
system.l3cache.demand_hits::.cpu.inst              19                       # number of demand (read+write) hits
system.l3cache.demand_hits::.cpu.data            4974                       # number of demand (read+write) hits
system.l3cache.demand_hits::total                4993                       # number of demand (read+write) hits
system.l3cache.overall_hits::.cpu.inst             19                       # number of overall hits
system.l3cache.overall_hits::.cpu.data           4974                       # number of overall hits
system.l3cache.overall_hits::total               4993                       # number of overall hits
system.l3cache.ReadExReq_misses::.cpu.data         8487                       # number of ReadExReq misses
system.l3cache.ReadExReq_misses::total           8487                       # number of ReadExReq misses
system.l3cache.ReadSharedReq_misses::.cpu.inst          802                       # number of ReadSharedReq misses
system.l3cache.ReadSharedReq_misses::.cpu.data          291                       # number of ReadSharedReq misses
system.l3cache.ReadSharedReq_misses::total         1093                       # number of ReadSharedReq misses
system.l3cache.demand_misses::.cpu.inst           802                       # number of demand (read+write) misses
system.l3cache.demand_misses::.cpu.data          8778                       # number of demand (read+write) misses
system.l3cache.demand_misses::total              9580                       # number of demand (read+write) misses
system.l3cache.overall_misses::.cpu.inst          802                       # number of overall misses
system.l3cache.overall_misses::.cpu.data         8778                       # number of overall misses
system.l3cache.overall_misses::total             9580                       # number of overall misses
system.l3cache.ReadExReq_miss_latency::.cpu.data    654560000                       # number of ReadExReq miss cycles
system.l3cache.ReadExReq_miss_latency::total    654560000                       # number of ReadExReq miss cycles
system.l3cache.ReadSharedReq_miss_latency::.cpu.inst     57898500                       # number of ReadSharedReq miss cycles
system.l3cache.ReadSharedReq_miss_latency::.cpu.data     32278500                       # number of ReadSharedReq miss cycles
system.l3cache.ReadSharedReq_miss_latency::total     90177000                       # number of ReadSharedReq miss cycles
system.l3cache.demand_miss_latency::.cpu.inst     57898500                       # number of demand (read+write) miss cycles
system.l3cache.demand_miss_latency::.cpu.data    686838500                       # number of demand (read+write) miss cycles
system.l3cache.demand_miss_latency::total    744737000                       # number of demand (read+write) miss cycles
system.l3cache.overall_miss_latency::.cpu.inst     57898500                       # number of overall miss cycles
system.l3cache.overall_miss_latency::.cpu.data    686838500                       # number of overall miss cycles
system.l3cache.overall_miss_latency::total    744737000                       # number of overall miss cycles
system.l3cache.WritebackDirty_accesses::.writebacks         9490                       # number of WritebackDirty accesses(hits+misses)
system.l3cache.WritebackDirty_accesses::total         9490                       # number of WritebackDirty accesses(hits+misses)
system.l3cache.ReadExReq_accesses::.cpu.data         8799                       # number of ReadExReq accesses(hits+misses)
system.l3cache.ReadExReq_accesses::total         8799                       # number of ReadExReq accesses(hits+misses)
system.l3cache.ReadSharedReq_accesses::.cpu.inst          821                       # number of ReadSharedReq accesses(hits+misses)
system.l3cache.ReadSharedReq_accesses::.cpu.data         4953                       # number of ReadSharedReq accesses(hits+misses)
system.l3cache.ReadSharedReq_accesses::total         5774                       # number of ReadSharedReq accesses(hits+misses)
system.l3cache.demand_accesses::.cpu.inst          821                       # number of demand (read+write) accesses
system.l3cache.demand_accesses::.cpu.data        13752                       # number of demand (read+write) accesses
system.l3cache.demand_accesses::total           14573                       # number of demand (read+write) accesses
system.l3cache.overall_accesses::.cpu.inst          821                       # number of overall (read+write) accesses
system.l3cache.overall_accesses::.cpu.data        13752                       # number of overall (read+write) accesses
system.l3cache.overall_accesses::total          14573                       # number of overall (read+write) accesses
system.l3cache.ReadExReq_miss_rate::.cpu.data     0.964541                       # miss rate for ReadExReq accesses
system.l3cache.ReadExReq_miss_rate::total     0.964541                       # miss rate for ReadExReq accesses
system.l3cache.ReadSharedReq_miss_rate::.cpu.inst     0.976857                       # miss rate for ReadSharedReq accesses
system.l3cache.ReadSharedReq_miss_rate::.cpu.data     0.058752                       # miss rate for ReadSharedReq accesses
system.l3cache.ReadSharedReq_miss_rate::total     0.189297                       # miss rate for ReadSharedReq accesses
system.l3cache.demand_miss_rate::.cpu.inst     0.976857                       # miss rate for demand accesses
system.l3cache.demand_miss_rate::.cpu.data     0.638307                       # miss rate for demand accesses
system.l3cache.demand_miss_rate::total       0.657380                       # miss rate for demand accesses
system.l3cache.overall_miss_rate::.cpu.inst     0.976857                       # miss rate for overall accesses
system.l3cache.overall_miss_rate::.cpu.data     0.638307                       # miss rate for overall accesses
system.l3cache.overall_miss_rate::total      0.657380                       # miss rate for overall accesses
system.l3cache.ReadExReq_avg_miss_latency::.cpu.data 77125.014728                       # average ReadExReq miss latency
system.l3cache.ReadExReq_avg_miss_latency::total 77125.014728                       # average ReadExReq miss latency
system.l3cache.ReadSharedReq_avg_miss_latency::.cpu.inst 72192.643392                       # average ReadSharedReq miss latency
system.l3cache.ReadSharedReq_avg_miss_latency::.cpu.data 110922.680412                       # average ReadSharedReq miss latency
system.l3cache.ReadSharedReq_avg_miss_latency::total 82504.117109                       # average ReadSharedReq miss latency
system.l3cache.demand_avg_miss_latency::.cpu.inst 72192.643392                       # average overall miss latency
system.l3cache.demand_avg_miss_latency::.cpu.data 78245.443153                       # average overall miss latency
system.l3cache.demand_avg_miss_latency::total 77738.726514                       # average overall miss latency
system.l3cache.overall_avg_miss_latency::.cpu.inst 72192.643392                       # average overall miss latency
system.l3cache.overall_avg_miss_latency::.cpu.data 78245.443153                       # average overall miss latency
system.l3cache.overall_avg_miss_latency::total 77738.726514                       # average overall miss latency
system.l3cache.blocked_cycles::no_mshrs             0                       # number of cycles access was blocked
system.l3cache.blocked_cycles::no_targets            0                       # number of cycles access was blocked
system.l3cache.blocked::no_mshrs                    0                       # number of cycles access was blocked
system.l3cache.blocked::no_targets                  0                       # number of cycles access was blocked
system.l3cache.avg_blocked_cycles::no_mshrs          nan                       # average number of cycles each access was blocked
system.l3cache.avg_blocked_cycles::no_targets          nan                       # average number of cycles each access was blocked
system.l3cache.ReadExReq_mshr_misses::.cpu.data         8487                       # number of ReadExReq MSHR misses
system.l3cache.ReadExReq_mshr_misses::total         8487                       # number of ReadExReq MSHR misses
system.l3cache.ReadSharedReq_mshr_misses::.cpu.inst          802                       # number of ReadSharedReq MSHR misses
system.l3cache.ReadSharedReq_mshr_misses::.cpu.data          291                       # number of ReadSharedReq MSHR misses
system.l3cache.ReadSharedReq_mshr_misses::total         1093                       # number of ReadSharedReq MSHR misses
system.l3cache.demand_mshr_misses::.cpu.inst          802                       # number of demand (read+write) MSHR misses
system.l3cache.demand_mshr_misses::.cpu.data         8778                       # number of demand (read+write) MSHR misses
system.l3cache.demand_mshr_misses::total         9580                       # number of demand (read+write) MSHR misses
system.l3cache.overall_mshr_misses::.cpu.inst          802                       # number of overall MSHR misses
system.l3cache.overall_mshr_misses::.cpu.data         8778                       # number of overall MSHR misses
system.l3cache.overall_mshr_misses::total         9580                       # number of overall MSHR misses
system.l3cache.ReadExReq_mshr_miss_latency::.cpu.data    637586000                       # number of ReadExReq MSHR miss cycles
system.l3cache.ReadExReq_mshr_miss_latency::total    637586000                       # number of ReadExReq MSHR miss cycles
system.l3cache.ReadSharedReq_mshr_miss_latency::.cpu.inst     56294500                       # number of ReadSharedReq MSHR miss cycles
system.l3cache.ReadSharedReq_mshr_miss_latency::.cpu.data     31696500                       # number of ReadSharedReq MSHR miss cycles
system.l3cache.ReadSharedReq_mshr_miss_latency::total     87991000                       # number of ReadSharedReq MSHR miss cycles
system.l3cache.demand_mshr_miss_latency::.cpu.inst     56294500                       # number of demand (read+write) MSHR miss cycles
system.l3cache.demand_mshr_miss_latency::.cpu.data    669282500                       # number of demand (read+write) MSHR miss cycles
system.l3cache.demand_mshr_miss_latency::total    725577000                       # number of demand (read+write) MSHR miss cycles
system.l3cache.overall_mshr_miss_latency::.cpu.inst     56294500                       # number of overall MSHR miss cycles
system.l3cache.overall_mshr_miss_latency::.cpu.data    669282500                       # number of overall MSHR miss cycles
system.l3cache.overall_mshr_miss_latency::total    725577000                       # number of overall MSHR miss cycles
system.l3cache.ReadExReq_mshr_miss_rate::.cpu.data     0.964541                       # mshr miss rate for ReadExReq accesses
system.l3cache.ReadExReq_mshr_miss_rate::total     0.964541                       # mshr miss rate for ReadExReq accesses
system.l3cache.ReadSharedReq_mshr_miss_rate::.cpu.inst     0.976857                       # mshr miss rate for ReadSharedReq accesses
system.l3cache.ReadSharedReq_mshr_miss_rate::.cpu.data     0.058752                       # mshr miss rate for ReadSharedReq accesses
system.l3cache.ReadSharedReq_mshr_miss_rate::total     0.189297                       # mshr miss rate for ReadSharedReq accesses
system.l3cache.demand_mshr_miss_rate::.cpu.inst     0.976857                       # mshr miss rate for demand accesses
system.l3cache.demand_mshr_miss_rate::.cpu.data     0.638307                       # mshr miss rate for demand accesses
system.l3cache.demand_mshr_miss_rate::total     0.657380                       # mshr miss rate for demand accesses
system.l3cache.overall_mshr_miss_rate::.cpu.inst     0.976857                       # mshr miss rate for overall accesses
system.l3cache.overall_mshr_miss_rate::.cpu.data     0.638307                       # mshr miss rate for overall accesses
system.l3cache.overall_mshr_miss_rate::total     0.657380                       # mshr miss rate for overall accesses
system.l3cache.ReadExReq_avg_mshr_miss_latency::.cpu.data 75125.014728                       # average ReadExReq mshr miss latency
system.l3cache.ReadExReq_avg_mshr_miss_latency::total 75125.014728                       # average ReadExReq mshr miss latency
system.l3cache.ReadSharedReq_avg_mshr_miss_latency::.cpu.inst 70192.643392                       # average ReadSharedReq mshr miss latency
system.l3cache.ReadSharedReq_avg_mshr_miss_latency::.cpu.data 108922.680412                       # average ReadSharedReq mshr miss latency
system.l3cache.ReadSharedReq_avg_mshr_miss_latency::total 80504.117109                       # average ReadSharedReq mshr miss latency
system.l3cache.demand_avg_mshr_miss_latency::.cpu.inst 70192.643392                       # average overall mshr miss latency
system.l3cache.demand_avg_mshr_miss_latency::.cpu.data 76245.443153                       # average overall mshr miss latency
system.l3cache.demand_avg_mshr_miss_latency::total 75738.726514                       # average overall mshr miss latency
system.l3cache.overall_avg_mshr_miss_latency::.cpu.inst 70192.643392                       # average overall mshr miss latency
system.l3cache.overall_avg_mshr_miss_latency::.cpu.data 76245.443153                       # average overall mshr miss latency
system.l3cache.overall_avg_mshr_miss_latency::total 75738.726514                       # average overall mshr miss latency
system.l3cache.replacements                         0                       # number of replacements
system.membus.snoop_filter.tot_requests          9580                       # Total number of requests made to the snoop filter.
system.membus.snoop_filter.hit_single_requests            0                       # Number of requests hitting in the snoop filter with a single holder of the requested data.
system.membus.snoop_filter.hit_multi_requests            0                       # Number of requests hitting in the snoop filter with multiple (>1) holders of the requested data.
system.membus.snoop_filter.tot_snoops               0                       # Total number of snoops made to the snoop filter.
system.membus.snoop_filter.hit_single_snoops            0                       # Number of snoops hitting in the snoop filter with a single holder of the requested data.
system.membus.snoop_filter.hit_multi_snoops            0                       # Number of snoops hitting in the snoop filter with multiple (>1) holders of the requested data.
system.membus.pwrStateResidencyTicks::UNDEFINED  36197821000                       # Cumulative time (in ticks) in various power states
system.membus.trans_dist::ReadResp               1093                       # Transaction distribution
system.membus.trans_dist::ReadExReq              8487                       # Transaction distribution
system.membus.trans_dist::ReadExResp             8487                       # Transaction distribution
system.membus.trans_dist::ReadSharedReq          1093                       # Transaction distribution
system.membus.pkt_count_system.l3cache.mem_side::system.mem_ctrl.port        19160                       # Packet count per connected master and slave (bytes)
system.membus.pkt_count_system.l3cache.mem_side::total        19160                       # Packet count per connected master and slave (bytes)
system.membus.pkt_count::total                  19160                       # Packet count per connected master and slave (bytes)
system.membus.pkt_size_system.l3cache.mem_side::system.mem_ctrl.port       613120                       # Cumulative packet size per connected master and slave (bytes)
system.membus.pkt_size_system.l3cache.mem_side::total       613120                       # Cumulative packet size per connected master and slave (bytes)
system.membus.pkt_size::total                  613120                       # Cumulative packet size per connected master and slave (bytes)
system.membus.snoops                                0                       # Total snoops (count)
system.membus.snoopTraffic                          0                       # Total snoop traffic (bytes)
system.membus.snoop_fanout::samples              9580                       # Request fanout histogram
system.membus.snoop_fanout::mean                    0                       # Request fanout histogram
system.membus.snoop_fanout::stdev                   0                       # Request fanout histogram
system.membus.snoop_fanout::underflows              0      0.00%      0.00% # Request fanout histogram
system.membus.snoop_fanout::0                    9580    100.00%    100.00% # Request fanout histogram
system.membus.snoop_fanout::1                       0      0.00%    100.00% # Request fanout histogram
system.membus.snoop_fanout::overflows               0      0.00%    100.00% # Request fanout histogram
system.membus.snoop_fanout::min_value               0                       # Request fanout histogram
system.membus.snoop_fanout::max_value               0                       # Request fanout histogram
system.membus.snoop_fanout::total                9580                       # Request fanout histogram
system.membus.reqLayer0.occupancy             4790000                       # Layer occupancy (ticks)
system.membus.reqLayer0.utilization               0.0                       # Layer utilization (%)
system.membus.respLayer0.occupancy           25158750                       # Layer occupancy (ticks)
system.membus.respLayer0.utilization              0.1                       # Layer utilization (%)

---------- End Simulation Statistics   ----------