
---------- Begin Simulation Statistics ----------
sim_seconds                                  0.000716                       # Number of seconds simulated
sim_ticks                                   715531000                       # Number of ticks simulated
final_tick                                  715531000                       # Number of ticks from beginning of simulation (restored from checkpoints and never reset)
sim_freq                                 1000000000000                       # Frequency of simulated ticks
host_inst_rate                                 263257                       # Simulator instruction rate (inst/s)
host_op_rate                                   466687                       # Simulator op (including micro ops) rate (op/s)
host_tick_rate                              193535851                       # Simulator tick rate (ticks/s)
host_mem_usage                                 659324                       # Number of bytes of host memory used
host_seconds                                     3.70                       # Real time elapsed on the host
sim_insts                                      973299                       # Number of instructions simulated
sim_ops                                       1725409                       # Number of ops (including micro ops) simulated
system.clk_domain.voltage_domain.voltage            1                       # Voltage in Volts
system.clk_domain.clock                           500                       # Clock period in ticks
system.mem_ctrl.pwrStateResidencyTicks::UNDEFINED    715531000                       # Cumulative time (in ticks) in various power states
system.mem_ctrl.bytes_read::.cpu.inst           47424                       # Number of bytes read from this memory
system.mem_ctrl.bytes_read::.cpu.data           29888                       # Number of bytes read from this memory
system.mem_ctrl.bytes_read::total               77312                       # Number of bytes read from this memory
system.mem_ctrl.bytes_inst_read::.cpu.inst        47424                       # Number of instructions bytes read from this memory
system.mem_ctrl.bytes_inst_read::total          47424                       # Number of instructions bytes read from this memory
system.mem_ctrl.num_reads::.cpu.inst              741                       # Number of read requests responded to by this memory
system.mem_ctrl.num_reads::.cpu.data              467                       # Number of read requests responded to by this memory
system.mem_ctrl.num_reads::total                 1208                       # Number of read requests responded to by this memory
system.mem_ctrl.bw_read::.cpu.inst           66278051                       # Total read bandwidth from this memory (bytes/s)
system.mem_ctrl.bw_read::.cpu.data           41770378                       # Total read bandwidth from this memory (bytes/s)
system.mem_ctrl.bw_read::total              108048428                       # Total read bandwidth from this memory (bytes/s)
system.mem_ctrl.bw_inst_read::.cpu.inst      66278051                       # Instruction read bandwidth from this memory (bytes/s)
system.mem_ctrl.bw_inst_read::total          66278051                       # Instruction read bandwidth from this memory (bytes/s)
system.mem_ctrl.bw_total::.cpu.inst          66278051                       # Total bandwidth to/from this memory (bytes/s)
system.mem_ctrl.bw_total::.cpu.data          41770378                       # Total bandwidth to/from this memory (bytes/s)
system.mem_ctrl.bw_total::total             108048428                       # Total bandwidth to/from this memory (bytes/s)
system.mem_ctrl.avgPriority_.cpu.inst::samples       741.00                       # Average QoS priority value for accepted requests
system.mem_ctrl.avgPriority_.cpu.data::samples       467.00                       # Average QoS priority value for accepted requests
system.mem_ctrl.priorityMinLatency       0.000000018750                       # per QoS priority minimum request to response latency (s)
system.mem_ctrl.priorityMaxLatency       0.000001099750                       # per QoS priority maximum request to response latency (s)
system.mem_ctrl.numReadWriteTurnArounds             0                       # Number of turnarounds from READ to WRITE
system.mem_ctrl.numWriteReadTurnArounds             0                       # Number of turnarounds from WRITE to READ
system.mem_ctrl.numStayReadState                 2534                       # Number of times bus staying in READ state
system.mem_ctrl.numStayWriteState                   0                       # Number of times bus staying in WRITE state
system.mem_ctrl.readReqs                         1208                       # Number of read requests accepted
system.mem_ctrl.writeReqs                           0                       # Number of write requests accepted
system.mem_ctrl.readBursts                       1208                       # Number of DRAM read bursts, including those serviced by the write queue
system.mem_ctrl.writeBursts                         0                       # Number of DRAM write bursts, including those merged in the write queue
system.mem_ctrl.bytesReadDRAM                   77312                       # Total number of bytes read from DRAM
system.mem_ctrl.bytesReadWrQ                        0                       # Total number of bytes read from write queue
system.mem_ctrl.bytesWritten                        0                       # Total number of bytes written to DRAM
system.mem_ctrl.bytesReadSys                    77312                       # Total read bytes from the system interface side
system.mem_ctrl.bytesWrittenSys                     0                       # Total written bytes from the system interface side
system.mem_ctrl.servicedByWrQ                       0                       # Number of DRAM read bursts serviced by the write queue
system.mem_ctrl.mergedWrBursts                      0                       # Number of DRAM write bursts merged with an existing one
system.mem_ctrl.neitherReadNorWriteReqs             0                       # Number of requests that are neither read nor write
system.mem_ctrl.perBankRdBursts::0                208                       # Per bank write bursts
system.mem_ctrl.perBankRdBursts::1                 99                       # Per bank write bursts
system.mem_ctrl.perBankRdBursts::2                 38                       # Per bank write bursts
system.mem_ctrl.perBankRdBursts::3                 15                       # Per bank write bursts
system.mem_ctrl.perBankRdBursts::4                 29                       # Per bank write bursts
system.mem_ctrl.perBankRdBursts::5                 12                       # Per bank write bursts
system.mem_ctrl.perBankRdBursts::6                 73                       # Per bank write bursts
system.mem_ctrl.perBankRdBursts::7                 99                       # Per bank write bursts
system.mem_ctrl.perBankRdBursts::8                 28                       # Per bank write bursts
system.mem_ctrl.perBankRdBursts::9                 48                       # Per bank write bursts
system.mem_ctrl.perBankRdBursts::10               138                       # Per bank write bursts
system.mem_ctrl.perBankRdBursts::11               102                       # Per bank write bursts
system.mem_ctrl.perBankRdBursts::12                54                       # Per bank write bursts
system.mem_ctrl.perBankRdBursts::13                68                       # Per bank write bursts
system.mem_ctrl.perBankRdBursts::14               103                       # Per bank write bursts
system.mem_ctrl.perBankRdBursts::15                94                       # Per bank write bursts
system.mem_ctrl.perBankWrBursts::0                  0                       # Per bank write bursts
system.mem_ctrl.perBankWrBursts::1                  0                       # Per bank write bursts
system.mem_ctrl.perBankWrBursts::2                  0                       # Per bank write bursts
system.mem_ctrl.perBankWrBursts::3                  0                       # Per bank write bursts
system.mem_ctrl.perBankWrBursts::4                  0                       # Per bank write bursts
system.mem_ctrl.perBankWrBursts::5                  0                       # Per bank write bursts
system.mem_ctrl.perBankWrBursts::6                  0                       # Per bank write bursts
system.mem_ctrl.perBankWrBursts::7                  0                       # Per bank write bursts
system.mem_ctrl.perBankWrBursts::8                  0                       # Per bank write bursts
system.mem_ctrl.perBankWrBursts::9                  0                       # Per bank write bursts
system.mem_ctrl.perBankWrBursts::10                 0                       # Per bank write bursts
system.mem_ctrl.perBankWrBursts::11                 0                       # Per bank write bursts
system.mem_ctrl.perBankWrBursts::12                 0                       # Per bank write bursts
system.mem_ctrl.perBankWrBursts::13                 0                       # Per bank write bursts
system.mem_ctrl.perBankWrBursts::14                 0                       # Per bank write bursts
system.mem_ctrl.perBankWrBursts::15                 0                       # Per bank write bursts
system.mem_ctrl.numRdRetry                          0                       # Number of times read queue was full causing retry
system.mem_ctrl.numWrRetry                          0                       # Number of times write queue was full causing retry
system.mem_ctrl.totGap                      715447000                       # Total gap between requests
system.mem_ctrl.readPktSize::0                      0                       # Read request sizes (log2)
system.mem_ctrl.readPktSize::1                      0                       # Read request sizes (log2)
system.mem_ctrl.readPktSize::2                      0                       # Read request sizes (log2)
system.mem_ctrl.readPktSize::3                      0                       # Read request sizes (log2)
system.mem_ctrl.readPktSize::4                      0                       # Read request sizes (log2)
system.mem_ctrl.readPktSize::5                      0                       # Read request sizes (log2)
system.mem_ctrl.readPktSize::6                   1208                       # Read request sizes (log2)
system.mem_ctrl.writePktSize::0                     0                       # Write request sizes (log2)
system.mem_ctrl.writePktSize::1                     0                       # Write request sizes (log2)
system.mem_ctrl.writePktSize::2                     0                       # Write request sizes (log2)
system.mem_ctrl.writePktSize::3                     0                       # Write request sizes (log2)
system.mem_ctrl.writePktSize::4                     0                       # Write request sizes (log2)
system.mem_ctrl.writePktSize::5                     0                       # Write request sizes (log2)
system.mem_ctrl.writePktSize::6                     0                       # Write request sizes (log2)
system.mem_ctrl.rdQLenPdf::0                      850                       # What read queue length does an incoming req see
system.mem_ctrl.rdQLenPdf::1                      271                       # What read queue length does an incoming req see
system.mem_ctrl.rdQLenPdf::2                       65                       # What read queue length does an incoming req see
system.mem_ctrl.rdQLenPdf::3                       17                       # What read queue length does an incoming req see
system.mem_ctrl.rdQLenPdf::4                        5                       # What read queue length does an incoming req see
system.mem_ctrl.rdQLenPdf::5                        0                       # What read queue length does an incoming req see
system.mem_ctrl.rdQLenPdf::6                        0                       # What read queue length does an incoming req see
system.mem_ctrl.rdQLenPdf::7                        0                       # What read queue length does an incoming req see
system.mem_ctrl.rdQLenPdf::8                        0                       # What read queue length does an incoming req see
system.mem_ctrl.rdQLenPdf::9                        0                       # What read queue length does an incoming req see
system.mem_ctrl.rdQLenPdf::10                       0                       # What read queue length does an incoming req see
system.mem_ctrl.rdQLenPdf::11                       0                       # What read queue length does an incoming req see
system.mem_ctrl.rdQLenPdf::12                       0                       # What read queue length does an incoming req see
system.mem_ctrl.rdQLenPdf::13                       0                       # What read queue length does an incoming req see
system.mem_ctrl.rdQLenPdf::14                       0                       # What read queue length does an incoming req see
system.mem_ctrl.rdQLenPdf::15                       0                       # What read queue length does an incoming req see
system.mem_ctrl.rdQLenPdf::16                       0                       # What read queue length does an incoming req see
system.mem_ctrl.rdQLenPdf::17                       0                       # What read queue length does an incoming req see
system.mem_ctrl.rdQLenPdf::18                       0                       # What read queue length does an incoming req see
system.mem_ctrl.rdQLenPdf::19                       0                       # What read queue length does an incoming req see
system.mem_ctrl.rdQLenPdf::20                       0                       # What read queue length does an incoming req see
system.mem_ctrl.rdQLenPdf::21                       0                       # What read queue length does an incoming req see
system.mem_ctrl.rdQLenPdf::22                       0                       # What read queue length does an incoming req see
system.mem_ctrl.rdQLenPdf::23                       0                       # What read queue length does an incoming req see
system.mem_ctrl.rdQLenPdf::24                       0                       # What read queue length does an incoming req see
system.mem_ctrl.rdQLenPdf::25                       0                       # What read queue length does an incoming req see
system.mem_ctrl.rdQLenPdf::26                       0                       # What read queue length does an incoming req see
system.mem_ctrl.rdQLenPdf::27                       0                       # What read queue length does an incoming req see
system.mem_ctrl.rdQLenPdf::28                       0                       # What read queue length does an incoming req see
system.mem_ctrl.rdQLenPdf::29                       0                       # What read queue length does an incoming req see
system.mem_ctrl.rdQLenPdf::30                       0                       # What read queue length does an incoming req see
system.mem_ctrl.rdQLenPdf::31                       0                       # What read queue length does an incoming req see
system.mem_ctrl.wrQLenPdf::0                        0                       # What write queue length does an incoming req see
system.mem_ctrl.wrQLenPdf::1                        0                       # What write queue length does an incoming req see
system.mem_ctrl.wrQLenPdf::2                        0                       # What write queue length does an incoming req see
system.mem_ctrl.wrQLenPdf::3                        0                       # What write queue length does an incoming req see
system.mem_ctrl.wrQLenPdf::4                        0                       # What write queue length does an incoming req see
system.mem_ctrl.wrQLenPdf::5                        0                       # What write queue length does an incoming req see
system.mem_ctrl.wrQLenPdf::6                        0                       # What write queue length does an incoming req see
system.mem_ctrl.wrQLenPdf::7                        0                       # What write queue length does an incoming req see
system.mem_ctrl.wrQLenPdf::8                        0                       # What write queue length does an incoming req see
system.mem_ctrl.wrQLenPdf::9                        0                       # What write queue length does an incoming req see
system.mem_ctrl.wrQLenPdf::10                       0                       # What write queue length does an incoming req see
system.mem_ctrl.wrQLenPdf::11                       0                       # What write queue length does an incoming req see
system.mem_ctrl.wrQLenPdf::12                       0                       # What write queue length does an incoming req see
system.mem_ctrl.wrQLenPdf::13                       0                       # What write queue length does an incoming req see
system.mem_ctrl.wrQLenPdf::14                       0                       # What write queue length does an incoming req see
system.mem_ctrl.wrQLenPdf::15                       0                       # What write queue length does an incoming req see
system.mem_ctrl.wrQLenPdf::16                       0                       # What write queue length does an incoming req see
system.mem_ctrl.wrQLenPdf::17                       0                       # What write queue length does an incoming req see
system.mem_ctrl.wrQLenPdf::18                       0                       # What write queue length does an incoming req see
system.mem_ctrl.wrQLenPdf::19                       0                       # What write queue length does an incoming req see
system.mem_ctrl.wrQLenPdf::20                       0                       # What write queue length does an incoming req see
system.mem_ctrl.wrQLenPdf::21                       0                       # What write queue length does an incoming req see
system.mem_ctrl.wrQLenPdf::22                       0                       # What write queue length does an incoming req see
system.mem_ctrl.wrQLenPdf::23                       0                       # What write queue length does an incoming req see
system.mem_ctrl.wrQLenPdf::24                       0                       # What write queue length does an incoming req see
system.mem_ctrl.wrQLenPdf::25                       0                       # What write queue length does an incoming req see
system.mem_ctrl.wrQLenPdf::26                       0                       # What write queue length does an incoming req see
system.mem_ctrl.wrQLenPdf::27                       0                       # What write queue length does an incoming req see
system.mem_ctrl.wrQLenPdf::28                       0                       # What write queue length does an incoming req see
system.mem_ctrl.wrQLenPdf::29                       0                       # What write queue length does an incoming req see
system.mem_ctrl.wrQLenPdf::30                       0                       # What write queue length does an incoming req see
system.mem_ctrl.wrQLenPdf::31                       0                       # What write queue length does an incoming req see
system.mem_ctrl.wrQLenPdf::32                       0                       # What write queue length does an incoming req see
system.mem_ctrl.wrQLenPdf::33                       0                       # What write queue length does an incoming req see
system.mem_ctrl.wrQLenPdf::34                       0                       # What write queue length does an incoming req see
system.mem_ctrl.wrQLenPdf::35                       0                       # What write queue length does an incoming req see
system.mem_ctrl.wrQLenPdf::36                       0                       # What write queue length does an incoming req see
system.mem_ctrl.wrQLenPdf::37                       0                       # What write queue length does an incoming req see
system.mem_ctrl.wrQLenPdf::38                       0                       # What write queue length does an incoming req see
system.mem_ctrl.wrQLenPdf::39                       0                       # What write queue length does an incoming req see
system.mem_ctrl.wrQLenPdf::40                       0                       # What write queue length does an incoming req see
system.mem_ctrl.wrQLenPdf::41                       0                       # What write queue length does an incoming req see
system.mem_ctrl.wrQLenPdf::42                       0                       # What write queue length does an incoming req see
system.mem_ctrl.wrQLenPdf::43                       0                       # What write queue length does an incoming req see
system.mem_ctrl.wrQLenPdf::44                       0                       # What write queue length does an incoming req see
system.mem_ctrl.wrQLenPdf::45                       0                       # What write queue length does an incoming req see
system.mem_ctrl.wrQLenPdf::46                       0                       # What write queue length does an incoming req see
system.mem_ctrl.wrQLenPdf::47                       0                       # What write queue length does an incoming req see
system.mem_ctrl.wrQLenPdf::48                       0                       # What write queue length does an incoming req see
system.mem_ctrl.wrQLenPdf::49                       0                       # What write queue length does an incoming req see
system.mem_ctrl.wrQLenPdf::50                       0                       # What write queue length does an incoming req see
system.mem_ctrl.wrQLenPdf::51                       0                       # What write queue length does an incoming req see
system.mem_ctrl.wrQLenPdf::52                       0                       # What write queue length does an incoming req see
system.mem_ctrl.wrQLenPdf::53                       0                       # What write queue length does an incoming req see
system.mem_ctrl.wrQLenPdf::54                       0                       # What write queue length does an incoming req see
system.mem_ctrl.wrQLenPdf::55                       0                       # What write queue length does an incoming req see
system.mem_ctrl.wrQLenPdf::56                       0                       # What write queue length does an incoming req see
system.mem_ctrl.wrQLenPdf::57                       0                       # What write queue length does an incoming req see
system.mem_ctrl.wrQLenPdf::58                       0                       # What write queue length does an incoming req see
system.mem_ctrl.wrQLenPdf::59                       0                       # What write queue length does an incoming req see
system.mem_ctrl.wrQLenPdf::60                       0                       # What write queue length does an incoming req see
system.mem_ctrl.wrQLenPdf::61                       0                       # What write queue length does an incoming req see
system.mem_ctrl.wrQLenPdf::62                       0                       # What write queue length does an incoming req see
system.mem_ctrl.wrQLenPdf::63                       0                       # What write queue length does an incoming req see
system.mem_ctrl.bytesPerActivate::samples          310                       # Bytes accessed per row activation
system.mem_ctrl.bytesPerActivate::mean     242.993548                       # Bytes accessed per row activation
system.mem_ctrl.bytesPerActivate::gmean    148.172315                       # Bytes accessed per row activation
system.mem_ctrl.bytesPerActivate::stdev    278.712748                       # Bytes accessed per row activation
system.mem_ctrl.bytesPerActivate::0-127           134     43.23%     43.23% # Bytes accessed per row activation
system.mem_ctrl.bytesPerActivate::128-255           80     25.81%     69.03% # Bytes accessed per row activation
system.mem_ctrl.bytesPerActivate::256-383           31     10.00%     79.03% # Bytes accessed per row activation
system.mem_ctrl.bytesPerActivate::384-511           16      5.16%     84.19% # Bytes accessed per row activation
system.mem_ctrl.bytesPerActivate::512-639           11      3.55%     87.74% # Bytes accessed per row activation
system.mem_ctrl.bytesPerActivate::640-767            8      2.58%     90.32% # Bytes accessed per row activation
system.mem_ctrl.bytesPerActivate::768-895            5      1.61%     91.94% # Bytes accessed per row activation
system.mem_ctrl.bytesPerActivate::896-1023            6      1.94%     93.87% # Bytes accessed per row activation
system.mem_ctrl.bytesPerActivate::1024-1151           19      6.13%    100.00% # Bytes accessed per row activation
system.mem_ctrl.bytesPerActivate::total           310                       # Bytes accessed per row activation
system.mem_ctrl.masterReadBytes::.cpu.inst        47424                       # Per-master bytes read from memory
system.mem_ctrl.masterReadBytes::.cpu.data        29888                       # Per-master bytes read from memory
system.mem_ctrl.masterReadRate::.cpu.inst 66278050.846154808998                       # Per-master bytes read from memory rate (Bytes/sec)
system.mem_ctrl.masterReadRate::.cpu.data 41770377.523824959993                       # Per-master bytes read from memory rate (Bytes/sec)
system.mem_ctrl.masterReadAccesses::.cpu.inst          741                       # Per-master read serviced memory accesses
system.mem_ctrl.masterReadAccesses::.cpu.data          467                       # Per-master read serviced memory accesses
system.mem_ctrl.masterReadTotalLat::.cpu.inst     24232750                       # Per-master read total memory access latency
system.mem_ctrl.masterReadTotalLat::.cpu.data     39037750                       # Per-master read total memory access latency
system.mem_ctrl.masterReadAvgLat::.cpu.inst     32702.77                       # Per-master read average memory access latency
system.mem_ctrl.masterReadAvgLat::.cpu.data     83592.61                       # Per-master read average memory access latency
system.mem_ctrl.totQLat                      40620500                       # Total ticks spent queuing
system.mem_ctrl.totMemAccLat                 63270500                       # Total ticks spent from burst creation until serviced by the DRAM
system.mem_ctrl.totBusLat                     6040000                       # Total ticks spent in databus transfers
system.mem_ctrl.avgQLat                      33626.24                       # Average queueing delay per DRAM burst
system.mem_ctrl.avgBusLat                     5000.00                       # Average bus latency per DRAM burst
system.mem_ctrl.avgMemAccLat                 52376.24                       # Average memory access latency per DRAM burst
system.mem_ctrl.avgRdBW                        108.05                       # Average DRAM read bandwidth in MiByte/s
system.mem_ctrl.avgWrBW                          0.00                       # Average achieved write bandwidth in MiByte/s
system.mem_ctrl.avgRdBWSys                     108.05                       # Average system read bandwidth in MiByte/s
system.mem_ctrl.avgWrBWSys                       0.00                       # Average system write bandwidth in MiByte/s
system.mem_ctrl.peakBW                       12800.00                       # Theoretical peak bandwidth in MiByte/s
system.mem_ctrl.busUtil                          0.84                       # Data bus utilization in percentage
system.mem_ctrl.busUtilRead                      0.84                       # Data bus utilization in percentage for reads
system.mem_ctrl.busUtilWrite                     0.00                       # Data bus utilization in percentage for writes
system.mem_ctrl.avgRdQLen                        1.06                       # Average read queue length when enqueuing
system.mem_ctrl.avgWrQLen                        0.00                       # Average write queue length when enqueuing
system.mem_ctrl.readRowHits                       888                       # Number of row buffer hits during reads
system.mem_ctrl.writeRowHits                        0                       # Number of row buffer hits during writes
system.mem_ctrl.readRowHitRate                  73.51                       # Row buffer hit rate for reads
system.mem_ctrl.writeRowHitRate                   nan                       # Row buffer hit rate for writes
system.mem_ctrl.avgGap                      592257.45                       # Average gap between requests
system.mem_ctrl.pageHitRate                     73.51                       # Row buffer hit rate, read and write combined
system.mem_ctrl_0.actEnergy                   1056720                       # Energy for activate commands per rank (pJ)
system.mem_ctrl_0.preEnergy                    542685                       # Energy for precharge commands per rank (pJ)
system.mem_ctrl_0.readEnergy                  4091220                       # Energy for read commands per rank (pJ)
system.mem_ctrl_0.writeEnergy                       0                       # Energy for write commands per rank (pJ)
system.mem_ctrl_0.refreshEnergy          54088320.000000                       # Energy for refresh commands per rank (pJ)
system.mem_ctrl_0.actBackEnergy              17057820                       # Energy for active background per rank (pJ)
system.mem_ctrl_0.preBackEnergy               2751360                       # Energy for precharge background per rank (pJ)
system.mem_ctrl_0.actPowerDownEnergy        169341300                       # Energy for active power-down per rank (pJ)
system.mem_ctrl_0.prePowerDownEnergy        107865600                       # Energy for precharge power-down per rank (pJ)
system.mem_ctrl_0.selfRefreshEnergy      19397580.000000                       # Energy for self refresh per rank (pJ)
system.mem_ctrl_0.totalEnergy               377449425                       # Total energy per rank (pJ)
system.mem_ctrl_0.averagePower             527.509535                       # Core power per rank (mW)
system.mem_ctrl_0.totalIdleTime             668131500                       # Total Idle time Per DRAM Rank
system.mem_ctrl_0.memoryStateTime::IDLE       7848500                       # Time in different power states
system.mem_ctrl_0.memoryStateTime::REF       22880000                       # Time in different power states
system.mem_ctrl_0.memoryStateTime::SREF      15905750                       # Time in different power states
system.mem_ctrl_0.memoryStateTime::PRE_PDN    280895000                       # Time in different power states
system.mem_ctrl_0.memoryStateTime::ACT       16630250                       # Time in different power states
system.mem_ctrl_0.memoryStateTime::ACT_PDN    371371500                       # Time in different power states
system.mem_ctrl_1.actEnergy                   1228080                       # Energy for activate commands per rank (pJ)
system.mem_ctrl_1.preEnergy                    633765                       # Energy for precharge commands per rank (pJ)
system.mem_ctrl_1.readEnergy                  4533900                       # Energy for read commands per rank (pJ)
system.mem_ctrl_1.writeEnergy                       0                       # Energy for write commands per rank (pJ)
system.mem_ctrl_1.refreshEnergy          35649120.000000                       # Energy for refresh commands per rank (pJ)
system.mem_ctrl_1.actBackEnergy              13893180                       # Energy for active background per rank (pJ)
system.mem_ctrl_1.preBackEnergy               2363520                       # Energy for precharge background per rank (pJ)
system.mem_ctrl_1.actPowerDownEnergy        101399010                       # Energy for active power-down per rank (pJ)
system.mem_ctrl_1.prePowerDownEnergy         77292000                       # Energy for precharge power-down per rank (pJ)
system.mem_ctrl_1.selfRefreshEnergy          70098540                       # Energy for self refresh per rank (pJ)
system.mem_ctrl_1.totalEnergy               307091115                       # Total energy per rank (pJ)
system.mem_ctrl_1.averagePower             429.179330                       # Core power per rank (mW)
system.mem_ctrl_1.totalIdleTime             678684500                       # Total Idle time Per DRAM Rank
system.mem_ctrl_1.memoryStateTime::IDLE       4756500                       # Time in different power states
system.mem_ctrl_1.memoryStateTime::REF       15080000                       # Time in different power states
system.mem_ctrl_1.memoryStateTime::SREF     255258500                       # Time in different power states
system.mem_ctrl_1.memoryStateTime::PRE_PDN    201273000                       # Time in different power states
system.mem_ctrl_1.memoryStateTime::ACT       16799750                       # Time in different power states
system.mem_ctrl_1.memoryStateTime::ACT_PDN    222363250                       # Time in different power states
system.pwrStateResidencyTicks::UNDEFINED    715531000                       # Cumulative time (in ticks) in various power states
system.cpu.branchPred.lookups                  192273                       # Number of BP lookups
system.cpu.branchPred.condPredicted            192273                       # Number of conditional branches predicted
system.cpu.branchPred.condIncorrect              5554                       # Number of conditional branches incorrect
system.cpu.branchPred.BTBLookups               178860                       # Number of BTB lookups
system.cpu.branchPred.BTBHits                       0                       # Number of BTB hits
system.cpu.branchPred.BTBCorrect                    0                       # Number of correct BTB predictions (this stat may not work properly.
system.cpu.branchPred.BTBHitPct              0.000000                       # BTB Hit Percentage
system.cpu.branchPred.usedRAS                    6394                       # Number of times the RAS was used to get a target.
system.cpu.branchPred.RASInCorrect                203                       # Number of incorrect RAS predictions.
system.cpu.branchPred.indirectLookups          178860                       # Number of indirect predictor lookups.
system.cpu.branchPred.indirectHits              87619                       # Number of indirect target hits.
system.cpu.branchPred.indirectMisses            91241                       # Number of indirect misses.
system.cpu.branchPredindirectMispredicted         5175                       # Number of mispredicted indirect branches.
system.cpu.dtb.walker.pwrStateResidencyTicks::UNDEFINED    715531000                       # Cumulative time (in ticks) in various power states
system.cpu.dtb.rdAccesses                      301386                       # TLB accesses on read requests
system.cpu.dtb.wrAccesses                      139210                       # TLB accesses on write requests
system.cpu.dtb.rdMisses                           119                       # TLB misses on read requests
system.cpu.dtb.wrMisses                            37                       # TLB misses on write requests
system.cpu.apic_clk_domain.clock                 8000                       # Clock period in ticks
system.cpu.interrupts.pwrStateResidencyTicks::UNDEFINED    715531000                       # Cumulative time (in ticks) in various power states
system.cpu.itb.walker.pwrStateResidencyTicks::UNDEFINED    715531000                       # Cumulative time (in ticks) in various power states
system.cpu.itb.rdAccesses                           0                       # TLB accesses on read requests
system.cpu.itb.wrAccesses                      145717                       # TLB accesses on write requests
system.cpu.itb.rdMisses                             0                       # TLB misses on read requests
system.cpu.itb.wrMisses                           157                       # TLB misses on write requests
system.cpu.workload.numSyscalls                    15                       # Number of system calls
system.cpu.pwrStateResidencyTicks::ON       715531000                       # Cumulative time (in ticks) in various power states
system.cpu.numCycles                          1431063                       # number of cpu cycles simulated
system.cpu.numWorkItemsStarted                      0                       # number of work items this cpu started
system.cpu.numWorkItemsCompleted                    0                       # number of work items this cpu completed
system.cpu.fetch.icacheStallCycles              49481                       # Number of cycles fetch is stalled on an Icache miss
system.cpu.fetch.Insts                        1093854                       # Number of instructions fetch has processed
system.cpu.fetch.Branches                      192273                       # Number of branches that fetch encountered
system.cpu.fetch.predictedBranches              94013                       # Number of branches that fetch has predicted taken
system.cpu.fetch.Cycles                       1337700                       # Number of cycles fetch has run and was not squashing or blocked
system.cpu.fetch.SquashCycles                   11306                       # Number of cycles fetch has spent squashing
system.cpu.fetch.MiscStallCycles                   75                       # Number of cycles fetch has spent waiting on interrupts, or bad addresses, or out of MSHRs
system.cpu.fetch.PendingTrapStallCycles          1050                       # Number of stall cycles due to pending traps
system.cpu.fetch.PendingQuiesceStallCycles           11                       # Number of stall cycles due to pending quiesce instructions
system.cpu.fetch.CacheLines                    145618                       # Number of cache lines fetched
system.cpu.fetch.IcacheSquashes                   435                       # Number of outstanding Icache misses that were squashed
system.cpu.fetch.rateDist::samples            1393970                       # Number of instructions fetched each cycle (Total)
system.cpu.fetch.rateDist::mean              1.395374                       # Number of instructions fetched each cycle (Total)
system.cpu.fetch.rateDist::stdev             0.881392                       # Number of instructions fetched each cycle (Total)
system.cpu.fetch.rateDist::underflows               0      0.00%      0.00% # Number of instructions fetched each cycle (Total)
system.cpu.fetch.rateDist::0                   374837     26.89%     26.89% # Number of instructions fetched each cycle (Total)
system.cpu.fetch.rateDist::1                    93157      6.68%     33.57% # Number of instructions fetched each cycle (Total)
system.cpu.fetch.rateDist::2                   925976     66.43%    100.00% # Number of instructions fetched each cycle (Total)
system.cpu.fetch.rateDist::overflows                0      0.00%    100.00% # Number of instructions fetched each cycle (Total)
system.cpu.fetch.rateDist::min_value                0                       # Number of instructions fetched each cycle (Total)
system.cpu.fetch.rateDist::max_value                2                       # Number of instructions fetched each cycle (Total)
system.cpu.fetch.rateDist::total              1393970                       # Number of instructions fetched each cycle (Total)
system.cpu.fetch.branchRate                  0.134357                       # Number of branch fetches per cycle
system.cpu.fetch.rate                        0.764365                       # Number of inst fetches per cycle
system.cpu.decode.IdleCycles                   122402                       # Number of cycles decode is idle
system.cpu.decode.BlockedCycles                289535                       # Number of cycles decode is blocked
system.cpu.decode.RunCycles                    890046                       # Number of cycles decode is running
system.cpu.decode.UnblockCycles                 86334                       # Number of cycles decode is unblocking
system.cpu.decode.SquashCycles                   5653                       # Number of cycles decode is squashing
system.cpu.decode.DecodedInsts                1887509                       # Number of instructions handled by decode
system.cpu.decode.SquashedInsts                 19623                       # Number of squashed instructions handled by decode
system.cpu.rename.SquashCycles                   5653                       # Number of cycles rename is squashing
system.cpu.rename.IdleCycles                   184945                       # Number of cycles rename is idle
system.cpu.rename.BlockCycles                  139274                       # Number of cycles rename is blocking
system.cpu.rename.serializeStallCycles           1964                       # count of cycles rename stalled for serializing inst
system.cpu.rename.RunCycles                    904651                       # Number of cycles rename is running
system.cpu.rename.UnblockCycles                157483                       # Number of cycles rename is unblocking
system.cpu.rename.RenamedInsts                1868151                       # Number of instructions processed by rename
system.cpu.rename.SquashedInsts                  9905                       # Number of squashed instructions processed by rename
system.cpu.rename.ROBFullEvents                    28                       # Number of times rename has blocked due to ROB full
system.cpu.rename.IQFullEvents                  48853                       # Number of times rename has blocked due to IQ full
system.cpu.rename.SQFullEvents                  64450                       # Number of times rename has blocked due to SQ full
system.cpu.rename.FullRegisterEvents              108                       # Number of times there has been no free registers
system.cpu.rename.RenamedOperands             2194928                       # Number of destination operands rename has renamed
system.cpu.rename.RenameLookups               4600373                       # Number of register rename lookups that rename has made
system.cpu.rename.int_rename_lookups          2865389                       # Number of integer rename lookups
system.cpu.rename.fp_rename_lookups              8274                       # Number of floating rename lookups
system.cpu.rename.CommittedMaps               2037183                       # Number of HB maps that are committed
system.cpu.rename.UndoneMaps                   157745                       # Number of HB maps that are undone due to squashing
system.cpu.rename.serializingInsts                 29                       # count of serializing insts renamed
system.cpu.rename.tempSerializingInsts             25                       # count of temporary serializing insts renamed
system.cpu.rename.skidInsts                    141808                       # count of insts added to the skid buffer
system.cpu.memDep0.insertedLoads               310374                       # Number of loads inserted to the mem dependence unit.
system.cpu.memDep0.insertedStores              147233                       # Number of stores inserted to the mem dependence unit.
system.cpu.memDep0.conflictingLoads             86534                       # Number of conflicting loads.
system.cpu.memDep0.conflictingStores            19767                       # Number of conflicting stores.
system.cpu.iq.iqInstsAdded                    1847612                       # Number of instructions added to the IQ (excludes non-spec)
system.cpu.iq.iqNonSpecInstsAdded                 148                       # Number of non-speculative instructions added to the IQ
system.cpu.iq.iqInstsIssued                   1801666                       # Number of instructions issued
system.cpu.iq.iqSquashedInstsIssued              5578                       # Number of squashed instructions issued
system.cpu.iq.iqSquashedInstsExamined          122350                       # Number of squashed instructions iterated over during squash; mainly for profiling
system.cpu.iq.iqSquashedOperandsExamined       166282                       # Number of squashed operands that are examined and possibly removed from graph
system.cpu.iq.iqSquashedNonSpecRemoved            133                       # Number of squashed non-spec instructions that were removed
system.cpu.iq.issued_per_cycle::samples       1393970                       # Number of insts issued each cycle
system.cpu.iq.issued_per_cycle::mean         1.292471                       # Number of insts issued each cycle
system.cpu.iq.issued_per_cycle::stdev        0.838105                       # Number of insts issued each cycle
system.cpu.iq.issued_per_cycle::underflows            0      0.00%      0.00% # Number of insts issued each cycle
system.cpu.iq.issued_per_cycle::0              345347     24.77%     24.77% # Number of insts issued each cycle
system.cpu.iq.issued_per_cycle::1              295580     21.20%     45.98% # Number of insts issued each cycle
system.cpu.iq.issued_per_cycle::2              753043     54.02%    100.00% # Number of insts issued each cycle
system.cpu.iq.issued_per_cycle::overflows            0      0.00%    100.00% # Number of insts issued each cycle
system.cpu.iq.issued_per_cycle::min_value            0                       # Number of insts issued each cycle
system.cpu.iq.issued_per_cycle::max_value            2                       # Number of insts issued each cycle
system.cpu.iq.issued_per_cycle::total         1393970                       # Number of insts issued each cycle
system.cpu.iq.fu_full::No_OpClass                   0      0.00%      0.00% # attempts to use FU when none available
system.cpu.iq.fu_full::IntAlu                       0      0.00%      0.00% # attempts to use FU when none available
system.cpu.iq.fu_full::IntMult                      0      0.00%      0.00% # attempts to use FU when none available
system.cpu.iq.fu_full::IntDiv                       0      0.00%      0.00% # attempts to use FU when none available
system.cpu.iq.fu_full::FloatAdd                     0      0.00%      0.00% # attempts to use FU when none available
system.cpu.iq.fu_full::FloatCmp                     0      0.00%      0.00% # attempts to use FU when none available
system.cpu.iq.fu_full::FloatCvt                     0      0.00%      0.00% # attempts to use FU when none available
system.cpu.iq.fu_full::FloatMult                    0      0.00%      0.00% # attempts to use FU when none available
system.cpu.iq.fu_full::FloatMultAcc                 0      0.00%      0.00% # attempts to use FU when none available
system.cpu.iq.fu_full::FloatDiv                     0      0.00%      0.00% # attempts to use FU when none available
system.cpu.iq.fu_full::FloatMisc                    0      0.00%      0.00% # attempts to use FU when none available
system.cpu.iq.fu_full::FloatSqrt                    0      0.00%      0.00% # attempts to use FU when none available
system.cpu.iq.fu_full::SimdAdd                    247      0.34%      0.34% # attempts to use FU when none available
system.cpu.iq.fu_full::SimdAddAcc                   0      0.00%      0.34% # attempts to use FU when none available
system.cpu.iq.fu_full::SimdAlu                     65      0.09%      0.44% # attempts to use FU when none available
system.cpu.iq.fu_full::SimdCmp                      0      0.00%      0.44% # attempts to use FU when none available
system.cpu.iq.fu_full::SimdCvt                     43      0.06%      0.50% # attempts to use FU when none available
system.cpu.iq.fu_full::SimdMisc                   129      0.18%      0.68% # attempts to use FU when none available
system.cpu.iq.fu_full::SimdMult                     0      0.00%      0.68% # attempts to use FU when none available
system.cpu.iq.fu_full::SimdMultAcc                  0      0.00%      0.68% # attempts to use FU when none available
system.cpu.iq.fu_full::SimdShift                  121      0.17%      0.84% # attempts to use FU when none available
system.cpu.iq.fu_full::SimdShiftAcc                 0      0.00%      0.84% # attempts to use FU when none available
system.cpu.iq.fu_full::SimdSqrt                     0      0.00%      0.84% # attempts to use FU when none available
system.cpu.iq.fu_full::SimdFloatAdd                 0      0.00%      0.84% # attempts to use FU when none available
system.cpu.iq.fu_full::SimdFloatAlu                 0      0.00%      0.84% # attempts to use FU when none available
system.cpu.iq.fu_full::SimdFloatCmp                 0      0.00%      0.84% # attempts to use FU when none available
system.cpu.iq.fu_full::SimdFloatCvt                 0      0.00%      0.84% # attempts to use FU when none available
system.cpu.iq.fu_full::SimdFloatDiv                 0      0.00%      0.84% # attempts to use FU when none available
system.cpu.iq.fu_full::SimdFloatMisc                0      0.00%      0.84% # attempts to use FU when none available
system.cpu.iq.fu_full::SimdFloatMult                0      0.00%      0.84% # attempts to use FU when none available
system.cpu.iq.fu_full::SimdFloatMultAcc             0      0.00%      0.84% # attempts to use FU when none available
system.cpu.iq.fu_full::SimdFloatSqrt                0      0.00%      0.84% # attempts to use FU when none available
system.cpu.iq.fu_full::SimdAes                      0      0.00%      0.84% # attempts to use FU when none available
system.cpu.iq.fu_full::SimdAesMix                   0      0.00%      0.84% # attempts to use FU when none available
system.cpu.iq.fu_full::SimdSha1Hash                 0      0.00%      0.84% # attempts to use FU when none available
system.cpu.iq.fu_full::SimdSha1Hash2                0      0.00%      0.84% # attempts to use FU when none available
system.cpu.iq.fu_full::SimdSha256Hash               0      0.00%      0.84% # attempts to use FU when none available
system.cpu.iq.fu_full::SimdSha256Hash2              0      0.00%      0.84% # attempts to use FU when none available
system.cpu.iq.fu_full::SimdShaSigma2                0      0.00%      0.84% # attempts to use FU when none available
system.cpu.iq.fu_full::SimdShaSigma3                0      0.00%      0.84% # attempts to use FU when none available
system.cpu.iq.fu_full::MemRead                  60223     84.08%     84.92% # attempts to use FU when none available
system.cpu.iq.fu_full::MemWrite                 10800     15.08%    100.00% # attempts to use FU when none available
system.cpu.iq.fu_full::FloatMemRead                 0      0.00%    100.00% # attempts to use FU when none available
system.cpu.iq.fu_full::FloatMemWrite                0      0.00%    100.00% # attempts to use FU when none available
system.cpu.iq.fu_full::IprAccess                    0      0.00%    100.00% # attempts to use FU when none available
system.cpu.iq.fu_full::InstPrefetch                 0      0.00%    100.00% # attempts to use FU when none available
system.cpu.iq.FU_type_0::No_OpClass              4219      0.23%      0.23% # Type of FU issued
system.cpu.iq.FU_type_0::IntAlu               1340337     74.39%     74.63% # Type of FU issued
system.cpu.iq.FU_type_0::IntMult                 9135      0.51%     75.14% # Type of FU issued
system.cpu.iq.FU_type_0::IntDiv                    31      0.00%     75.14% # Type of FU issued
system.cpu.iq.FU_type_0::FloatAdd                1040      0.06%     75.19% # Type of FU issued
system.cpu.iq.FU_type_0::FloatCmp                   0      0.00%     75.19% # Type of FU issued
system.cpu.iq.FU_type_0::FloatCvt                   0      0.00%     75.19% # Type of FU issued
system.cpu.iq.FU_type_0::FloatMult                  0      0.00%     75.19% # Type of FU issued
system.cpu.iq.FU_type_0::FloatMultAcc               0      0.00%     75.19% # Type of FU issued
system.cpu.iq.FU_type_0::FloatDiv                   0      0.00%     75.19% # Type of FU issued
system.cpu.iq.FU_type_0::FloatMisc                  0      0.00%     75.19% # Type of FU issued
system.cpu.iq.FU_type_0::FloatSqrt                  0      0.00%     75.19% # Type of FU issued
system.cpu.iq.FU_type_0::SimdAdd                  375      0.02%     75.22% # Type of FU issued
system.cpu.iq.FU_type_0::SimdAddAcc                 0      0.00%     75.22% # Type of FU issued
system.cpu.iq.FU_type_0::SimdAlu                   98      0.01%     75.22% # Type of FU issued
system.cpu.iq.FU_type_0::SimdCmp                    0      0.00%     75.22% # Type of FU issued
system.cpu.iq.FU_type_0::SimdCvt                  147      0.01%     75.23% # Type of FU issued
system.cpu.iq.FU_type_0::SimdMisc                 258      0.01%     75.24% # Type of FU issued
system.cpu.iq.FU_type_0::SimdMult                   0      0.00%     75.24% # Type of FU issued
system.cpu.iq.FU_type_0::SimdMultAcc                0      0.00%     75.24% # Type of FU issued
system.cpu.iq.FU_type_0::SimdShift                186      0.01%     75.25% # Type of FU issued
system.cpu.iq.FU_type_0::SimdShiftAcc               0      0.00%     75.25% # Type of FU issued
system.cpu.iq.FU_type_0::SimdSqrt                   0      0.00%     75.25% # Type of FU issued
system.cpu.iq.FU_type_0::SimdFloatAdd               0      0.00%     75.25% # Type of FU issued
system.cpu.iq.FU_type_0::SimdFloatAlu               0      0.00%     75.25% # Type of FU issued
system.cpu.iq.FU_type_0::SimdFloatCmp               0      0.00%     75.25% # Type of FU issued
system.cpu.iq.FU_type_0::SimdFloatCvt               0      0.00%     75.25% # Type of FU issued
system.cpu.iq.FU_type_0::SimdFloatDiv               0      0.00%     75.25% # Type of FU issued
system.cpu.iq.FU_type_0::SimdFloatMisc              0      0.00%     75.25% # Type of FU issued
system.cpu.iq.FU_type_0::SimdFloatMult              0      0.00%     75.25% # Type of FU issued
system.cpu.iq.FU_type_0::SimdFloatMultAcc            0      0.00%     75.25% # Type of FU issued
system.cpu.iq.FU_type_0::SimdFloatSqrt              0      0.00%     75.25% # Type of FU issued
system.cpu.iq.FU_type_0::SimdAes                    0      0.00%     75.25% # Type of FU issued
system.cpu.iq.FU_type_0::SimdAesMix                 0      0.00%     75.25% # Type of FU issued
system.cpu.iq.FU_type_0::SimdSha1Hash               0      0.00%     75.25% # Type of FU issued
system.cpu.iq.FU_type_0::SimdSha1Hash2              0      0.00%     75.25% # Type of FU issued
system.cpu.iq.FU_type_0::SimdSha256Hash             0      0.00%     75.25% # Type of FU issued
system.cpu.iq.FU_type_0::SimdSha256Hash2            0      0.00%     75.25% # Type of FU issued
system.cpu.iq.FU_type_0::SimdShaSigma2              0      0.00%     75.25% # Type of FU issued
system.cpu.iq.FU_type_0::SimdShaSigma3              0      0.00%     75.25% # Type of FU issued
system.cpu.iq.FU_type_0::MemRead               300759     16.69%     91.95% # Type of FU issued
system.cpu.iq.FU_type_0::MemWrite              136291      7.56%     99.51% # Type of FU issued
system.cpu.iq.FU_type_0::FloatMemRead            4207      0.23%     99.75% # Type of FU issued
system.cpu.iq.FU_type_0::FloatMemWrite           4583      0.25%    100.00% # Type of FU issued
system.cpu.iq.FU_type_0::IprAccess                  0      0.00%    100.00% # Type of FU issued
system.cpu.iq.FU_type_0::InstPrefetch               0      0.00%    100.00% # Type of FU issued
system.cpu.iq.FU_type_0::total                1801666                       # Type of FU issued
system.cpu.iq.rate                           1.258970                       # Inst issue rate
system.cpu.iq.fu_busy_cnt                       71628                       # FU busy when requested
system.cpu.iq.fu_busy_rate                   0.039757                       # FU busy rate (busy events/executed inst)
system.cpu.iq.int_inst_queue_reads            5051045                       # Number of integer instruction queue reads
system.cpu.iq.int_inst_queue_writes           1958545                       # Number of integer instruction queue writes
system.cpu.iq.int_inst_queue_wakeup_accesses      1768669                       # Number of integer instruction queue wakeup accesses
system.cpu.iq.fp_inst_queue_reads               23463                       # Number of floating instruction queue reads
system.cpu.iq.fp_inst_queue_writes              11598                       # Number of floating instruction queue writes
system.cpu.iq.fp_inst_queue_wakeup_accesses        11391                       # Number of floating instruction queue wakeup accesses
system.cpu.iq.vec_inst_queue_reads                  0                       # Number of vector instruction queue reads
system.cpu.iq.vec_inst_queue_writes                 0                       # Number of vector instruction queue writes
system.cpu.iq.vec_inst_queue_wakeup_accesses            0                       # Number of vector instruction queue wakeup accesses
system.cpu.iq.int_alu_accesses                1857045                       # Number of integer alu accesses
system.cpu.iq.fp_alu_accesses                   12030                       # Number of floating point alu accesses
system.cpu.iq.vec_alu_accesses                      0                       # Number of vector alu accesses
system.cpu.iew.lsq.thread0.forwLoads            32632                       # Number of loads that had data forwarded from stores
system.cpu.iew.lsq.thread0.invAddrLoads             0                       # Number of loads ignored due to an invalid address
system.cpu.iew.lsq.thread0.squashedLoads        20133                       # Number of loads squashed
system.cpu.iew.lsq.thread0.ignoredResponses           12                       # Number of memory responses ignored because the instruction is squashed
system.cpu.iew.lsq.thread0.memOrderViolation           33                       # Number of memory ordering violations
system.cpu.iew.lsq.thread0.squashedStores        10135                       # Number of stores squashed
system.cpu.iew.lsq.thread0.invAddrSwpfs             0                       # Number of software prefetches ignored due to an invalid address
system.cpu.iew.lsq.thread0.blockedLoads             0                       # Number of blocked loads due to partial load-store forwarding
system.cpu.iew.lsq.thread0.rescheduledLoads            1                       # Number of loads that were rescheduled
system.cpu.iew.lsq.thread0.cacheBlocked            16                       # Number of times an access to memory failed due to the cache being blocked
system.cpu.iew.iewIdleCycles                        0                       # Number of cycles IEW is idle
system.cpu.iew.iewSquashCycles                   5653                       # Number of cycles IEW is squashing
system.cpu.iew.iewBlockCycles                   19809                       # Number of cycles IEW is blocking
system.cpu.iew.iewUnblockCycles                  6927                       # Number of cycles IEW is unblocking
system.cpu.iew.iewDispatchedInsts             1847760                       # Number of instructions dispatched to IQ
system.cpu.iew.iewDispSquashedInsts              5293                       # Number of squashed instructions skipped by dispatch
system.cpu.iew.iewDispLoadInsts                310374                       # Number of dispatched load instructions
system.cpu.iew.iewDispStoreInsts               147233                       # Number of dispatched store instructions
system.cpu.iew.iewDispNonSpecInsts                 61                       # Number of dispatched non-speculative instructions
system.cpu.iew.iewIQFullEvents                   3588                       # Number of times the IQ has become full, causing a stall
system.cpu.iew.iewLSQFullEvents                  1568                       # Number of times the LSQ has become full, causing a stall
system.cpu.iew.memOrderViolationEvents             33                       # Number of memory order violations
system.cpu.iew.predictedTakenIncorrect            338                       # Number of branches that were predicted taken incorrectly
system.cpu.iew.predictedNotTakenIncorrect         6134                       # Number of branches that were predicted not taken incorrectly
system.cpu.iew.branchMispredicts                 6472                       # Number of branch mispredicts detected at execute
system.cpu.iew.iewExecutedInsts               1785448                       # Number of executed instructions
system.cpu.iew.iewExecLoadInsts                301372                       # Number of load instructions executed
system.cpu.iew.iewExecSquashedInsts             16218                       # Number of squashed instructions skipped in execute
system.cpu.iew.exec_swp                             0                       # number of swp insts executed
system.cpu.iew.exec_nop                             0                       # number of nop insts executed
system.cpu.iew.exec_refs                       440582                       # number of memory reference insts executed
system.cpu.iew.exec_branches                   173965                       # Number of branches executed
system.cpu.iew.exec_stores                     139210                       # Number of stores executed
system.cpu.iew.exec_rate                     1.247638                       # Inst execution rate
system.cpu.iew.wb_sent                        1782587                       # cumulative count of insts sent to commit
system.cpu.iew.wb_count                       1780060                       # cumulative count of insts written-back
system.cpu.iew.wb_producers                   1323588                       # num instructions producing a value
system.cpu.iew.wb_consumers                   1864046                       # num instructions consuming a value
system.cpu.iew.wb_rate                       1.243873                       # insts written-back per cycle
system.cpu.iew.wb_fanout                     0.710062                       # average fanout of values written-back
system.cpu.commit.commitSquashedInsts          112063                       # The number of squashed insts skipped by commit
system.cpu.commit.commitNonSpecStalls              15                       # The number of times commit has been forced to stall to communicate backwards
system.cpu.commit.branchMispredicts              5624                       # The number of times a branch was mispredicted
system.cpu.commit.committed_per_cycle::samples      1384232                       # Number of insts commited each cycle
system.cpu.commit.committed_per_cycle::mean     1.246474                       # Number of insts commited each cycle
system.cpu.commit.committed_per_cycle::stdev     0.896201                       # Number of insts commited each cycle
system.cpu.commit.committed_per_cycle::underflows            0      0.00%      0.00% # Number of insts commited each cycle
system.cpu.commit.committed_per_cycle::0       427348     30.87%     30.87% # Number of insts commited each cycle
system.cpu.commit.committed_per_cycle::1       188359     13.61%     44.48% # Number of insts commited each cycle
system.cpu.commit.committed_per_cycle::2       768525     55.52%    100.00% # Number of insts commited each cycle
system.cpu.commit.committed_per_cycle::overflows            0      0.00%    100.00% # Number of insts commited each cycle
system.cpu.commit.committed_per_cycle::min_value            0                       # Number of insts commited each cycle
system.cpu.commit.committed_per_cycle::max_value            2                       # Number of insts commited each cycle
system.cpu.commit.committed_per_cycle::total      1384232                       # Number of insts commited each cycle
system.cpu.commit.committedInsts               973299                       # Number of instructions committed
system.cpu.commit.committedOps                1725409                       # Number of ops (including micro ops) committed
system.cpu.commit.swp_count                         0                       # Number of s/w prefetches committed
system.cpu.commit.refs                         427339                       # Number of memory references committed
system.cpu.commit.loads                        290241                       # Number of loads committed
system.cpu.commit.membars                           0                       # Number of memory barriers committed
system.cpu.commit.branches                     169835                       # Number of branches committed
system.cpu.commit.vec_insts                         0                       # Number of committed Vector instructions.
system.cpu.commit.fp_insts                      11320                       # Number of committed floating point instructions.
system.cpu.commit.int_insts                   1721682                       # Number of committed integer instructions.
system.cpu.commit.function_calls                 5522                       # Number of function calls committed.
system.cpu.commit.op_class_0::No_OpClass         1187      0.07%      0.07% # Class of committed instruction
system.cpu.commit.op_class_0::IntAlu          1285635     74.51%     74.58% # Class of committed instruction
system.cpu.commit.op_class_0::IntMult            9132      0.53%     75.11% # Class of committed instruction
system.cpu.commit.op_class_0::IntDiv               28      0.00%     75.11% # Class of committed instruction
system.cpu.commit.op_class_0::FloatAdd           1039      0.06%     75.17% # Class of committed instruction
system.cpu.commit.op_class_0::FloatCmp              0      0.00%     75.17% # Class of committed instruction
system.cpu.commit.op_class_0::FloatCvt              0      0.00%     75.17% # Class of committed instruction
system.cpu.commit.op_class_0::FloatMult             0      0.00%     75.17% # Class of committed instruction
system.cpu.commit.op_class_0::FloatMultAcc            0      0.00%     75.17% # Class of committed instruction
system.cpu.commit.op_class_0::FloatDiv              0      0.00%     75.17% # Class of committed instruction
system.cpu.commit.op_class_0::FloatMisc             0      0.00%     75.17% # Class of committed instruction
system.cpu.commit.op_class_0::FloatSqrt             0      0.00%     75.17% # Class of committed instruction
system.cpu.commit.op_class_0::SimdAdd             374      0.02%     75.19% # Class of committed instruction
system.cpu.commit.op_class_0::SimdAddAcc            0      0.00%     75.19% # Class of committed instruction
system.cpu.commit.op_class_0::SimdAlu              94      0.01%     75.20% # Class of committed instruction
system.cpu.commit.op_class_0::SimdCmp               0      0.00%     75.20% # Class of committed instruction
system.cpu.commit.op_class_0::SimdCvt             140      0.01%     75.21% # Class of committed instruction
system.cpu.commit.op_class_0::SimdMisc            255      0.01%     75.22% # Class of committed instruction
system.cpu.commit.op_class_0::SimdMult              0      0.00%     75.22% # Class of committed instruction
system.cpu.commit.op_class_0::SimdMultAcc            0      0.00%     75.22% # Class of committed instruction
system.cpu.commit.op_class_0::SimdShift           186      0.01%     75.23% # Class of committed instruction
system.cpu.commit.op_class_0::SimdShiftAcc            0      0.00%     75.23% # Class of committed instruction
system.cpu.commit.op_class_0::SimdSqrt              0      0.00%     75.23% # Class of committed instruction
system.cpu.commit.op_class_0::SimdFloatAdd            0      0.00%     75.23% # Class of committed instruction
system.cpu.commit.op_class_0::SimdFloatAlu            0      0.00%     75.23% # Class of committed instruction
system.cpu.commit.op_class_0::SimdFloatCmp            0      0.00%     75.23% # Class of committed instruction
system.cpu.commit.op_class_0::SimdFloatCvt            0      0.00%     75.23% # Class of committed instruction
system.cpu.commit.op_class_0::SimdFloatDiv            0      0.00%     75.23% # Class of committed instruction
system.cpu.commit.op_class_0::SimdFloatMisc            0      0.00%     75.23% # Class of committed instruction
system.cpu.commit.op_class_0::SimdFloatMult            0      0.00%     75.23% # Class of committed instruction
system.cpu.commit.op_class_0::SimdFloatMultAcc            0      0.00%     75.23% # Class of committed instruction
system.cpu.commit.op_class_0::SimdFloatSqrt            0      0.00%     75.23% # Class of committed instruction
system.cpu.commit.op_class_0::SimdAes               0      0.00%     75.23% # Class of committed instruction
system.cpu.commit.op_class_0::SimdAesMix            0      0.00%     75.23% # Class of committed instruction
system.cpu.commit.op_class_0::SimdSha1Hash            0      0.00%     75.23% # Class of committed instruction
system.cpu.commit.op_class_0::SimdSha1Hash2            0      0.00%     75.23% # Class of committed instruction
system.cpu.commit.op_class_0::SimdSha256Hash            0      0.00%     75.23% # Class of committed instruction
system.cpu.commit.op_class_0::SimdSha256Hash2            0      0.00%     75.23% # Class of committed instruction
system.cpu.commit.op_class_0::SimdShaSigma2            0      0.00%     75.23% # Class of committed instruction
system.cpu.commit.op_class_0::SimdShaSigma3            0      0.00%     75.23% # Class of committed instruction
system.cpu.commit.op_class_0::MemRead          286057     16.58%     91.81% # Class of committed instruction
system.cpu.commit.op_class_0::MemWrite         132575      7.68%     99.50% # Class of committed instruction
system.cpu.commit.op_class_0::FloatMemRead         4184      0.24%     99.74% # Class of committed instruction
system.cpu.commit.op_class_0::FloatMemWrite         4523      0.26%    100.00% # Class of committed instruction
system.cpu.commit.op_class_0::IprAccess             0      0.00%    100.00% # Class of committed instruction
system.cpu.commit.op_class_0::InstPrefetch            0      0.00%    100.00% # Class of committed instruction
system.cpu.commit.op_class_0::total           1725409                       # Class of committed instruction
system.cpu.commit.bw_lim_events                768525                       # number cycles where commit BW limit reached
system.cpu.rob.rob_reads                      2453179                       # The number of ROB reads
system.cpu.rob.rob_writes                     3684684                       # The number of ROB writes
system.cpu.timesIdled                             452                       # Number of times that the entire CPU went into an idle state and unscheduled itself
system.cpu.idleCycles                           37093                       # Total number of cycles that the CPU has spent unscheduled due to idling
system.cpu.committedInsts                      973299                       # Number of Instructions Simulated
system.cpu.committedOps                       1725409                       # Number of Ops (including micro ops) Simulated
system.cpu.cpi                               1.470322                       # CPI: Cycles Per Instruction
system.cpu.cpi_total                         1.470322                       # CPI: Total CPI of All Threads
system.cpu.ipc                               0.680123                       # IPC: Instructions Per Cycle
system.cpu.ipc_total                         0.680123                       # IPC: Total IPC of All Threads
system.cpu.int_regfile_reads                  2714447                       # number of integer regfile reads
system.cpu.int_regfile_writes                 1468247                       # number of integer regfile writes
system.cpu.fp_regfile_reads                      8192                       # number of floating regfile reads
system.cpu.fp_regfile_writes                     6752                       # number of floating regfile writes
system.cpu.cc_regfile_reads                    834660                       # number of cc regfile reads
system.cpu.cc_regfile_writes                   624638                       # number of cc regfile writes
system.cpu.misc_regfile_reads                  805536                       # number of misc regfile reads
system.cpu.dcache.tags.pwrStateResidencyTicks::UNDEFINED    715531000                       # Cumulative time (in ticks) in various power states
system.cpu.dcache.tags.tagsinuse           382.030694                       # Cycle average of tags in use
system.cpu.dcache.tags.total_refs              405585                       # Total number of references to valid blocks.
system.cpu.dcache.tags.sampled_refs               470                       # Sample count of references to valid blocks.
system.cpu.dcache.tags.avg_refs            862.946809                       # Average number of references to valid blocks.
system.cpu.dcache.tags.warmup_cycle            170000                       # Cycle when the warmup percentage was hit.
system.cpu.dcache.tags.occ_blocks::.cpu.data   382.030694                       # Average occupied blocks per requestor
system.cpu.dcache.tags.occ_percent::.cpu.data     0.746154                       # Average percentage of cache occupancy
system.cpu.dcache.tags.occ_percent::total     0.746154                       # Average percentage of cache occupancy
system.cpu.dcache.tags.occ_task_id_blocks::1024          454                       # Occupied blocks per task id
system.cpu.dcache.tags.age_task_id_blocks_1024::0           14                       # Occupied blocks per task id
system.cpu.dcache.tags.age_task_id_blocks_1024::1           11                       # Occupied blocks per task id
system.cpu.dcache.tags.age_task_id_blocks_1024::2          429                       # Occupied blocks per task id
system.cpu.dcache.tags.occ_task_id_percent::1024     0.886719                       # Percentage of cache occupancy per task id
system.cpu.dcache.tags.tag_accesses           3246342                       # Number of tag accesses
system.cpu.dcache.tags.data_accesses          3246342                       # Number of data accesses
system.cpu.dcache.pwrStateResidencyTicks::UNDEFINED    715531000                       # Cumulative time (in ticks) in various power states
system.cpu.dcache.ReadReq_hits::.cpu.data       268305                       # number of ReadReq hits
system.cpu.dcache.ReadReq_hits::total          268305                       # number of ReadReq hits
system.cpu.dcache.WriteReq_hits::.cpu.data       136810                       # number of WriteReq hits
system.cpu.dcache.WriteReq_hits::total         136810                       # number of WriteReq hits
system.cpu.dcache.demand_hits::.cpu.data       405115                       # number of demand (read+write) hits
system.cpu.dcache.demand_hits::total           405115                       # number of demand (read+write) hits
system.cpu.dcache.overall_hits::.cpu.data       405115                       # number of overall hits
system.cpu.dcache.overall_hits::total          405115                       # number of overall hits
system.cpu.dcache.ReadReq_misses::.cpu.data          331                       # number of ReadReq misses
system.cpu.dcache.ReadReq_misses::total           331                       # number of ReadReq misses
system.cpu.dcache.WriteReq_misses::.cpu.data          288                       # number of WriteReq misses
system.cpu.dcache.WriteReq_misses::total          288                       # number of WriteReq misses
system.cpu.dcache.demand_misses::.cpu.data          619                       # number of demand (read+write) misses
system.cpu.dcache.demand_misses::total            619                       # number of demand (read+write) misses
system.cpu.dcache.overall_misses::.cpu.data          619                       # number of overall misses
system.cpu.dcache.overall_misses::total           619                       # number of overall misses
system.cpu.dcache.ReadReq_miss_latency::.cpu.data     42937500                       # number of ReadReq miss cycles
system.cpu.dcache.ReadReq_miss_latency::total     42937500                       # number of ReadReq miss cycles
system.cpu.dcache.WriteReq_miss_latency::.cpu.data     38405000                       # number of WriteReq miss cycles
system.cpu.dcache.WriteReq_miss_latency::total     38405000                       # number of WriteReq miss cycles
system.cpu.dcache.demand_miss_latency::.cpu.data     81342500                       # number of demand (read+write) miss cycles
system.cpu.dcache.demand_miss_latency::total     81342500                       # number of demand (read+write) miss cycles
system.cpu.dcache.overall_miss_latency::.cpu.data     81342500                       # number of overall miss cycles
system.cpu.dcache.overall_miss_latency::total     81342500                       # number of overall miss cycles
system.cpu.dcache.ReadReq_accesses::.cpu.data       268636                       # number of ReadReq accesses(hits+misses)
system.cpu.dcache.ReadReq_accesses::total       268636                       # number of ReadReq accesses(hits+misses)
system.cpu.dcache.WriteReq_accesses::.cpu.data       137098                       # number of WriteReq accesses(hits+misses)
system.cpu.dcache.WriteReq_accesses::total       137098                       # number of WriteReq accesses(hits+misses)
system.cpu.dcache.demand_accesses::.cpu.data       405734                       # number of demand (read+write) accesses
system.cpu.dcache.demand_accesses::total       405734                       # number of demand (read+write) accesses
system.cpu.dcache.overall_accesses::.cpu.data       405734                       # number of overall (read+write) accesses
system.cpu.dcache.overall_accesses::total       405734                       # number of overall (read+write) accesses
system.cpu.dcache.ReadReq_miss_rate::.cpu.data     0.001232                       # miss rate for ReadReq accesses
system.cpu.dcache.ReadReq_miss_rate::total     0.001232                       # miss rate for ReadReq accesses
system.cpu.dcache.WriteReq_miss_rate::.cpu.data     0.002101                       # miss rate for WriteReq accesses
system.cpu.dcache.WriteReq_miss_rate::total     0.002101                       # miss rate for WriteReq accesses
system.cpu.dcache.demand_miss_rate::.cpu.data     0.001526                       # miss rate for demand accesses
system.cpu.dcache.demand_miss_rate::total     0.001526                       # miss rate for demand accesses
system.cpu.dcache.overall_miss_rate::.cpu.data     0.001526                       # miss rate for overall accesses
system.cpu.dcache.overall_miss_rate::total     0.001526                       # miss rate for overall accesses
system.cpu.dcache.ReadReq_avg_miss_latency::.cpu.data 129720.543807                       # average ReadReq miss latency
system.cpu.dcache.ReadReq_avg_miss_latency::total 129720.543807                       # average ReadReq miss latency
system.cpu.dcache.WriteReq_avg_miss_latency::.cpu.data 133350.694444                       # average WriteReq miss latency
system.cpu.dcache.WriteReq_avg_miss_latency::total 133350.694444                       # average WriteReq miss latency
system.cpu.dcache.demand_avg_miss_latency::.cpu.data 131409.531502                       # average overall miss latency
system.cpu.dcache.demand_avg_miss_latency::total 131409.531502                       # average overall miss latency
system.cpu.dcache.overall_avg_miss_latency::.cpu.data 131409.531502                       # average overall miss latency
[...]
system.l3bus.snoop_fanout::overflows                0      0.00%    100.00% # Request fanout histogram
system.l3bus.snoop_fanout::min_value                0                       # Request fanout histogram
system.l3bus.snoop_fanout::max_value                0                       # Request fanout histogram
system.l3bus.snoop_fanout::total                 1208                       # Request fanout histogram
system.l3bus.reqLayer0.occupancy               604000                       # Layer occupancy (ticks)
system.l3bus.reqLayer0.utilization                0.1                       # Layer utilization (%)
system.l3bus.respLayer0.occupancy             3020000                       # Layer occupancy (ticks)
system.l3bus.respLayer0.utilization               0.4                       # Layer utilization (%)
system.l3cache.tags.pwrStateResidencyTicks::UNDEFINED    715531000                       # Cumulative time (in ticks) in various power states
system.l3cache.tags.tagsinuse             1010.408656                       # Cycle average of tags in use
system.l3cache.tags.total_refs                   1208                       # Total number of references to valid blocks.
system.l3cache.tags.sampled_refs                 1208                       # Sample count of references to valid blocks.
system.l3cache.tags.avg_refs                        1                       # Average number of references to valid blocks.
system.l3cache.tags.warmup_cycle                76000                       # Cycle when the warmup percentage was hit.
system.l3cache.tags.occ_blocks::.cpu.inst   625.235779                       # Average occupied blocks per requestor
system.l3cache.tags.occ_blocks::.cpu.data   385.172877                       # Average occupied blocks per requestor
system.l3cache.tags.occ_percent::.cpu.inst     0.019081                       # Average percentage of cache occupancy
system.l3cache.tags.occ_percent::.cpu.data     0.011755                       # Average percentage of cache occupancy
system.l3cache.tags.occ_percent::total       0.030835                       # Average percentage of cache occupancy
system.l3cache.tags.occ_task_id_blocks::1024         1208                       # Occupied blocks per task id
system.l3cache.tags.age_task_id_blocks_1024::0           69                       # Occupied blocks per task id
system.l3cache.tags.age_task_id_blocks_1024::1           11                       # Occupied blocks per task id
system.l3cache.tags.age_task_id_blocks_1024::2         1128                       # Occupied blocks per task id
system.l3cache.tags.occ_task_id_percent::1024     0.036865                       # Percentage of cache occupancy per task id
system.l3cache.tags.tag_accesses                20536                       # Number of tag accesses
system.l3cache.tags.data_accesses               20536                       # Number of data accesses
system.l3cache.pwrStateResidencyTicks::UNDEFINED    715531000                       # Cumulative time (in ticks) in various power states
system.l3cache.ReadExReq_misses::.cpu.data          286                       # number of ReadExReq misses
system.l3cache.ReadExReq_misses::total            286                       # number of ReadExReq misses
system.l3cache.ReadSharedReq_misses::.cpu.inst          741                       # number of ReadSharedReq misses
system.l3cache.ReadSharedReq_misses::.cpu.data          181                       # number of ReadSharedReq misses
system.l3cache.ReadSharedReq_misses::total          922                       # number of ReadSharedReq misses
system.l3cache.demand_misses::.cpu.inst           741                       # number of demand (read+write) misses
system.l3cache.demand_misses::.cpu.data           467                       # number of demand (read+write) misses
system.l3cache.demand_misses::total              1208                       # number of demand (read+write) misses
system.l3cache.overall_misses::.cpu.inst          741                       # number of overall misses
system.l3cache.overall_misses::.cpu.data          467                       # number of overall misses
system.l3cache.overall_misses::total             1208                       # number of overall misses
system.l3cache.ReadExReq_miss_latency::.cpu.data     34398500                       # number of ReadExReq miss cycles
system.l3cache.ReadExReq_miss_latency::total     34398500                       # number of ReadExReq miss cycles
system.l3cache.ReadSharedReq_miss_latency::.cpu.inst     51813000                       # number of ReadSharedReq miss cycles
system.l3cache.ReadSharedReq_miss_latency::.cpu.data     22012000                       # number of ReadSharedReq miss cycles
system.l3cache.ReadSharedReq_miss_latency::total     73825000                       # number of ReadSharedReq miss cycles
system.l3cache.demand_miss_latency::.cpu.inst     51813000                       # number of demand (read+write) miss cycles
system.l3cache.demand_miss_latency::.cpu.data     56410500                       # number of demand (read+write) miss cycles
system.l3cache.demand_miss_latency::total    108223500                       # number of demand (read+write) miss cycles
system.l3cache.overall_miss_latency::.cpu.inst     51813000                       # number of overall miss cycles
system.l3cache.overall_miss_latency::.cpu.data     56410500                       # number of overall miss cycles
system.l3cache.overall_miss_latency::total    108223500                       # number of overall miss cycles
system.l3cache.ReadExReq_accesses::.cpu.data          286                       # number of ReadExReq accesses(hits+misses)
system.l3cache.ReadExReq_accesses::total          286                       # number of ReadExReq accesses(hits+misses)
system.l3cache.ReadSharedReq_accesses::.cpu.inst          741                       # number of ReadSharedReq accesses(hits+misses)
system.l3cache.ReadSharedReq_accesses::.cpu.data          181                       # number of ReadSharedReq accesses(hits+misses)
system.l3cache.ReadSharedReq_accesses::total          922                       # number of ReadSharedReq accesses(hits+misses)
system.l3cache.demand_accesses::.cpu.inst          741                       # number of demand (read+write) accesses
system.l3cache.demand_accesses::.cpu.data          467                       # number of demand (read+write) accesses
system.l3cache.demand_accesses::total            1208                       # number of demand (read+write) accesses
system.l3cache.overall_accesses::.cpu.inst          741                       # number of overall (read+write) accesses
system.l3cache.overall_accesses::.cpu.data          467                       # number of overall (read+write) accesses
system.l3cache.overall_accesses::total           1208                       # number of overall (read+write) accesses
system.l3cache.ReadExReq_miss_rate::.cpu.data            1                       # miss rate for ReadExReq accesses
system.l3cache.ReadExReq_miss_rate::total            1                       # miss rate for ReadExReq accesses
system.l3cache.ReadSharedReq_miss_rate::.cpu.inst            1                       # miss rate for ReadSharedReq accesses
system.l3cache.ReadSharedReq_miss_rate::.cpu.data            1                       # miss rate for ReadSharedReq accesses
system.l3cache.ReadSharedReq_miss_rate::total            1                       # miss rate for ReadSharedReq accesses
system.l3cache.demand_miss_rate::.cpu.inst            1                       # miss rate for demand accesses
system.l3cache.demand_miss_rate::.cpu.data            1                       # miss rate for demand accesses
system.l3cache.demand_miss_rate::total              1                       # miss rate for demand accesses
system.l3cache.overall_miss_rate::.cpu.inst            1                       # miss rate for overall accesses
system.l3cache.overall_miss_rate::.cpu.data            1                       # miss rate for overall accesses
system.l3cache.overall_miss_rate::total             1                       # miss rate for overall accesses
system.l3cache.ReadExReq_avg_miss_latency::.cpu.data 120274.475524                       # average ReadExReq miss latency
system.l3cache.ReadExReq_avg_miss_latency::total 120274.475524                       # average ReadExReq miss latency
system.l3cache.ReadSharedReq_avg_miss_latency::.cpu.inst 69923.076923                       # average ReadSharedReq miss latency
system.l3cache.ReadSharedReq_avg_miss_latency::.cpu.data 121613.259669                       # average ReadSharedReq miss latency
system.l3cache.ReadSharedReq_avg_miss_latency::total 80070.498915                       # average ReadSharedReq miss latency
system.l3cache.demand_avg_miss_latency::.cpu.inst 69923.076923                       # average overall miss latency
system.l3cache.demand_avg_miss_latency::.cpu.data 120793.361884                       # average overall miss latency
system.l3cache.demand_avg_miss_latency::total 89588.990066                       # average overall miss latency
system.l3cache.overall_avg_miss_latency::.cpu.inst 69923.076923                       # average overall miss latency
system.l3cache.overall_avg_miss_latency::.cpu.data 120793.361884                       # average overall miss latency
system.l3cache.overall_avg_miss_latency::total 89588.990066                       # average overall miss latency
system.l3cache.blocked_cycles::no_mshrs             0                       # number of cycles access was blocked
system.l3cache.blocked_cycles::no_targets            0                       # number of cycles access was blocked
system.l3cache.blocked::no_mshrs                    0                       # number of cycles access was blocked
system.l3cache.blocked::no_targets                  0                       # number of cycles access was blocked
system.l3cache.avg_blocked_cycles::no_mshrs          nan                       # average number of cycles each access was blocked
system.l3cache.avg_blocked_cycles::no_targets          nan                       # average number of cycles each access was blocked
system.l3cache.ReadExReq_mshr_misses::.cpu.data          286                       # number of ReadExReq MSHR misses
system.l3cache.ReadExReq_mshr_misses::total          286                       # number of ReadExReq MSHR misses
system.l3cache.ReadSharedReq_mshr_misses::.cpu.inst          741                       # number of ReadSharedReq MSHR misses
system.l3cache.ReadSharedReq_mshr_misses::.cpu.data          181                       # number of ReadSharedReq MSHR misses
system.l3cache.ReadSharedReq_mshr_misses::total          922                       # number of ReadSharedReq MSHR misses
system.l3cache.demand_mshr_misses::.cpu.inst          741                       # number of demand (read+write) MSHR misses
system.l3cache.demand_mshr_misses::.cpu.data          467                       # number of demand (read+write) MSHR misses
system.l3cache.demand_mshr_misses::total         1208                       # number of demand (read+write) MSHR misses
system.l3cache.overall_mshr_misses::.cpu.inst          741                       # number of overall MSHR misses
system.l3cache.overall_mshr_misses::.cpu.data          467                       # number of overall MSHR misses
system.l3cache.overall_mshr_misses::total         1208                       # number of overall MSHR misses
system.l3cache.ReadExReq_mshr_miss_latency::.cpu.data     33826500                       # number of ReadExReq MSHR miss cycles
system.l3cache.ReadExReq_mshr_miss_latency::total     33826500                       # number of ReadExReq MSHR miss cycles
system.l3cache.ReadSharedReq_mshr_miss_latency::.cpu.inst     50331000                       # number of ReadSharedReq MSHR miss cycles
system.l3cache.ReadSharedReq_mshr_miss_latency::.cpu.data     21650000                       # number of ReadSharedReq MSHR miss cycles
system.l3cache.ReadSharedReq_mshr_miss_latency::total     71981000                       # number of ReadSharedReq MSHR miss cycles
system.l3cache.demand_mshr_miss_latency::.cpu.inst     50331000                       # number of demand (read+write) MSHR miss cycles
system.l3cache.demand_mshr_miss_latency::.cpu.data     55476500                       # number of demand (read+write) MSHR miss cycles
system.l3cache.demand_mshr_miss_latency::total    105807500                       # number of demand (read+write) MSHR miss cycles
system.l3cache.overall_mshr_miss_latency::.cpu.inst     50331000                       # number of overall MSHR miss cycles
system.l3cache.overall_mshr_miss_latency::.cpu.data     55476500                       # number of overall MSHR miss cycles
system.l3cache.overall_mshr_miss_latency::total    105807500                       # number of overall MSHR miss cycles
system.l3cache.ReadExReq_mshr_miss_rate::.cpu.data            1                       # mshr miss rate for ReadExReq accesses
system.l3cache.ReadExReq_mshr_miss_rate::total            1                       # mshr miss rate for ReadExReq accesses
system.l3cache.ReadSharedReq_mshr_miss_rate::.cpu.inst            1                       # mshr miss rate for ReadSharedReq accesses
system.l3cache.ReadSharedReq_mshr_miss_rate::.cpu.data            1                       # mshr miss rate for ReadSharedReq accesses
system.l3cache.ReadSharedReq_mshr_miss_rate::total            1                       # mshr miss rate for ReadSharedReq accesses
system.l3cache.demand_mshr_miss_rate::.cpu.inst            1                       # mshr miss rate for demand accesses
system.l3cache.demand_mshr_miss_rate::.cpu.data            1                       # mshr miss rate for demand accesses
system.l3cache.demand_mshr_miss_rate::total            1                       # mshr miss rate for demand accesses
system.l3cache.overall_mshr_miss_rate::.cpu.inst            1                       # mshr miss rate for overall accesses
system.l3cache.overall_mshr_miss_rate::.cpu.data            1                       # mshr miss rate for overall accesses
system.l3cache.overall_mshr_miss_rate::total            1                       # mshr miss rate for overall accesses
system.l3cache.ReadExReq_avg_mshr_miss_latency::.cpu.data 118274.475524                       # average ReadExReq mshr miss latency
system.l3cache.ReadExReq_avg_mshr_miss_latency::total 118274.475524                       # average ReadExReq mshr miss latency
system.l3cache.ReadSharedReq_avg_mshr_miss_latency::.cpu.inst 67923.076923                       # average ReadSharedReq mshr miss latency
system.l3cache.ReadSharedReq_avg_mshr_miss_latency::.cpu.data 119613.259669                       # average ReadSharedReq mshr miss latency
system.l3cache.ReadSharedReq_avg_mshr_miss_latency::total 78070.498915                       # average ReadSharedReq mshr miss latency
system.l3cache.demand_avg_mshr_miss_latency::.cpu.inst 67923.076923                       # average overall mshr miss latency
system.l3cache.demand_avg_mshr_miss_latency::.cpu.data 118793.361884                       # average overall mshr miss latency
system.l3cache.demand_avg_mshr_miss_latency::total 87588.990066                       # average overall mshr miss latency
system.l3cache.overall_avg_mshr_miss_latency::.cpu.inst 67923.076923                       # average overall mshr miss latency
system.l3cache.overall_avg_mshr_miss_latency::.cpu.data 118793.361884                       # average overall mshr miss latency
system.l3cache.overall_avg_mshr_miss_latency::total 87588.990066                       # average overall mshr miss latency
system.l3cache.replacements                         0                       # number of replacements
system.membus.snoop_filter.tot_requests          1208                       # Total number of requests made to the snoop filter.
system.membus.snoop_filter.hit_single_requests            0                       # Number of requests hitting in the snoop filter with a single holder of the requested data.
system.membus.snoop_filter.hit_multi_requests            0                       # Number of requests hitting in the snoop filter with multiple (>1) holders of the requested data.
system.membus.snoop_filter.tot_snoops               0                       # Total number of snoops made to the snoop filter.
system.membus.snoop_filter.hit_single_snoops            0                       # Number of snoops hitting in the snoop filter with a single holder of the requested data.
system.membus.snoop_filter.hit_multi_snoops            0                       # Number of snoops hitting in the snoop filter with multiple (>1) holders of the requested data.
system.membus.pwrStateResidencyTicks::UNDEFINED    715531000                       # Cumulative time (in ticks) in various power states
system.membus.trans_dist::ReadResp                922                       # Transaction distribution
system.membus.trans_dist::ReadExReq               286                       # Transaction distribution
system.membus.trans_dist::ReadExResp              286                       # Transaction distribution
system.membus.trans_dist::ReadSharedReq           922                       # Transaction distribution
system.membus.pkt_count_system.l3cache.mem_side::system.mem_ctrl.port         2416                       # Packet count per connected master and slave (bytes)
system.membus.pkt_count_system.l3cache.mem_side::total         2416                       # Packet count per connected master and slave (bytes)
system.membus.pkt_count::total                   2416                       # Packet count per connected master and slave (bytes)
system.membus.pkt_size_system.l3cache.mem_side::system.mem_ctrl.port        77312                       # Cumulative packet size per connected master and slave (bytes)
system.membus.pkt_size_system.l3cache.mem_side::total        77312                       # Cumulative packet size per connected master and slave (bytes)
system.membus.pkt_size::total                   77312                       # Cumulative packet size per connected master and slave (bytes)
system.membus.snoops                                0                       # Total snoops (count)
system.membus.snoopTraffic                          0                       # Total snoop traffic (bytes)
system.membus.snoop_fanout::samples              1208                       # Request fanout histogram
system.membus.snoop_fanout::mean                    0                       # Request fanout histogram
system.membus.snoop_fanout::stdev                   0                       # Request fanout histogram
system.membus.snoop_fanout::underflows              0      0.00%      0.00% # Request fanout histogram
system.membus.snoop_fanout::0                    1208    100.00%    100.00% # Request fanout histogram
system.membus.snoop_fanout::1                       0      0.00%    100.00% # Request fanout histogram
system.membus.snoop_fanout::overflows               0      0.00%    100.00% # Request fanout histogram
system.membus.snoop_fanout::min_value               0                       # Request fanout histogram
system.membus.snoop_fanout::max_value               0                       # Request fanout histogram
system.membus.snoop_fanout::total                1208                       # Request fanout histogram
system.membus.reqLayer0.occupancy              604000                       # Layer occupancy (ticks)
system.membus.reqLayer0.utilization               0.1                       # Layer utilization (%)
system.membus.respLayer0.occupancy            3277000                       # Layer occupancy (ticks)
system.membus.respLayer0.utilization              0.5                       # Layer utilization (%)

---------- End Simulation Statistics   ----------