
---------- Begin Simulation Statistics ----------
sim_seconds                                  0.010455                       # Number of seconds simulated
sim_ticks                                 10455179000                       # Number of ticks simulated
final_tick                                10455179000                       # Number of ticks from beginning of simulation (restored from checkpoints and never reset)
sim_freq                                 1000000000000                       # Frequency of simulated ticks
host_inst_rate                                 263691                       # Simulator instruction rate (inst/s)
host_op_rate                                   452817                       # Simulator op (including micro ops) rate (op/s)
host_tick_rate                              146363142                       # Simulator tick rate (ticks/s)
host_mem_usage                                 660424                       # Number of bytes of host memory used
host_seconds                                    71.43                       # Real time elapsed on the host
sim_insts                                    18836239                       # Number of instructions simulated
sim_ops                                      32346156                       # Number of ops (including micro ops) simulated
system.clk_domain.voltage_domain.voltage            1                       # Voltage in Volts
system.clk_domain.clock                           500                       # Clock period in ticks
system.mem_ctrl.pwrStateResidencyTicks::UNDEFINED  10455179000                       # Cumulative time (in ticks) in various power states
system.mem_ctrl.bytes_read::.cpu.inst           54912                       # Number of bytes read from this memory
system.mem_ctrl.bytes_read::.cpu.data          107520                       # Number of bytes read from this memory
system.mem_ctrl.bytes_read::total              162432                       # Number of bytes read from this memory
system.mem_ctrl.bytes_inst_read::.cpu.inst        54912                       # Number of instructions bytes read from this memory
system.mem_ctrl.bytes_inst_read::total          54912                       # Number of instructions bytes read from this memory
system.mem_ctrl.num_reads::.cpu.inst              858                       # Number of read requests responded to by this memory
system.mem_ctrl.num_reads::.cpu.data             1680                       # Number of read requests responded to by this memory
system.mem_ctrl.num_reads::total                 2538                       # Number of read requests responded to by this memory
system.mem_ctrl.bw_read::.cpu.inst            5252134                       # Total read bandwidth from this memory (bytes/s)
system.mem_ctrl.bw_read::.cpu.data           10283899                       # Total read bandwidth from this memory (bytes/s)
system.mem_ctrl.bw_read::total               15536032                       # Total read bandwidth from this memory (bytes/s)
system.mem_ctrl.bw_inst_read::.cpu.inst       5252134                       # Instruction read bandwidth from this memory (bytes/s)
system.mem_ctrl.bw_inst_read::total           5252134                       # Instruction read bandwidth from this memory (bytes/s)
system.mem_ctrl.bw_total::.cpu.inst           5252134                       # Total bandwidth to/from this memory (bytes/s)
system.mem_ctrl.bw_total::.cpu.data          10283899                       # Total bandwidth to/from this memory (bytes/s)
system.mem_ctrl.bw_total::total              15536032                       # Total bandwidth to/from this memory (bytes/s)
system.mem_ctrl.avgPriority_.cpu.inst::samples       858.00                       # Average QoS priority value for accepted requests
system.mem_ctrl.avgPriority_.cpu.data::samples      1680.00                       # Average QoS priority value for accepted requests
system.mem_ctrl.priorityMinLatency       0.000000018750                       # per QoS priority minimum request to response latency (s)
system.mem_ctrl.priorityMaxLatency       0.000001107250                       # per QoS priority maximum request to response latency (s)
system.mem_ctrl.numReadWriteTurnArounds             0                       # Number of turnarounds from READ to WRITE
system.mem_ctrl.numWriteReadTurnArounds             0                       # Number of turnarounds from WRITE to READ
system.mem_ctrl.numStayReadState                 5688                       # Number of times bus staying in READ state
system.mem_ctrl.numStayWriteState                   0                       # Number of times bus staying in WRITE state
system.mem_ctrl.readReqs                         2538                       # Number of read requests accepted
system.mem_ctrl.writeReqs                           0                       # Number of write requests accepted
system.mem_ctrl.readBursts                       2538                       # Number of DRAM read bursts, including those serviced by the write queue
system.mem_ctrl.writeBursts                         0                       # Number of DRAM write bursts, including those merged in the write queue
system.mem_ctrl.bytesReadDRAM                  162432                       # Total number of bytes read from DRAM
system.mem_ctrl.bytesReadWrQ                        0                       # Total number of bytes read from write queue
system.mem_ctrl.bytesWritten                        0                       # Total number of bytes written to DRAM
system.mem_ctrl.bytesReadSys                   162432                       # Total read bytes from the system interface side
system.mem_ctrl.bytesWrittenSys                     0                       # Total written bytes from the system interface side
system.mem_ctrl.servicedByWrQ                       0                       # Number of DRAM read bursts serviced by the write queue
system.mem_ctrl.mergedWrBursts                      0                       # Number of DRAM write bursts merged with an existing one
system.mem_ctrl.neitherReadNorWriteReqs             0                       # Number of requests that are neither read nor write
system.mem_ctrl.perBankRdBursts::0                285                       # Per bank write bursts
system.mem_ctrl.perBankRdBursts::1                154                       # Per bank write bursts
system.mem_ctrl.perBankRdBursts::2                171                       # Per bank write bursts
system.mem_ctrl.perBankRdBursts::3                143                       # Per bank write bursts
system.mem_ctrl.perBankRdBursts::4                159                       # Per bank write bursts
system.mem_ctrl.perBankRdBursts::5                143                       # Per bank write bursts
system.mem_ctrl.perBankRdBursts::6                207                       # Per bank write bursts
system.mem_ctrl.perBankRdBursts::7                229                       # Per bank write bursts
system.mem_ctrl.perBankRdBursts::8                168                       # Per bank write bursts
system.mem_ctrl.perBankRdBursts::9                184                       # Per bank write bursts
system.mem_ctrl.perBankRdBursts::10               163                       # Per bank write bursts
system.mem_ctrl.perBankRdBursts::11               106                       # Per bank write bursts
system.mem_ctrl.perBankRdBursts::12                70                       # Per bank write bursts
system.mem_ctrl.perBankRdBursts::13                76                       # Per bank write bursts
system.mem_ctrl.perBankRdBursts::14               129                       # Per bank write bursts
system.mem_ctrl.perBankRdBursts::15               151                       # Per bank write bursts
system.mem_ctrl.perBankWrBursts::0                  0                       # Per bank write bursts
system.mem_ctrl.perBankWrBursts::1                  0                       # Per bank write bursts
system.mem_ctrl.perBankWrBursts::2                  0                       # Per bank write bursts
system.mem_ctrl.perBankWrBursts::3                  0                       # Per bank write bursts
system.mem_ctrl.perBankWrBursts::4                  0                       # Per bank write bursts
system.mem_ctrl.perBankWrBursts::5                  0                       # Per bank write bursts
system.mem_ctrl.perBankWrBursts::6                  0                       # Per bank write bursts
system.mem_ctrl.perBankWrBursts::7                  0                       # Per bank write bursts
system.mem_ctrl.perBankWrBursts::8                  0                       # Per bank write bursts
system.mem_ctrl.perBankWrBursts::9                  0                       # Per bank write bursts
system.mem_ctrl.perBankWrBursts::10                 0                       # Per bank write bursts
system.mem_ctrl.perBankWrBursts::11                 0                       # Per bank write bursts
system.mem_ctrl.perBankWrBursts::12                 0                       # Per bank write bursts
system.mem_ctrl.perBankWrBursts::13                 0                       # Per bank write bursts
system.mem_ctrl.perBankWrBursts::14                 0                       # Per bank write bursts
system.mem_ctrl.perBankWrBursts::15                 0                       # Per bank write bursts
system.mem_ctrl.numRdRetry                          0                       # Number of times read queue was full causing retry
system.mem_ctrl.numWrRetry                          0                       # Number of times write queue was full causing retry
system.mem_ctrl.totGap                    10455087500                       # Total gap between requests
system.mem_ctrl.readPktSize::0                      0                       # Read request sizes (log2)
system.mem_ctrl.readPktSize::1                      0                       # Read request sizes (log2)
system.mem_ctrl.readPktSize::2                      0                       # Read request sizes (log2)
system.mem_ctrl.readPktSize::3                      0                       # Read request sizes (log2)
system.mem_ctrl.readPktSize::4                      0                       # Read request sizes (log2)
system.mem_ctrl.readPktSize::5                      0                       # Read request sizes (log2)
system.mem_ctrl.readPktSize::6                   2538                       # Read request sizes (log2)
system.mem_ctrl.writePktSize::0                     0                       # Write request sizes (log2)
system.mem_ctrl.writePktSize::1                     0                       # Write request sizes (log2)
system.mem_ctrl.writePktSize::2                     0                       # Write request sizes (log2)
system.mem_ctrl.writePktSize::3                     0                       # Write request sizes (log2)
system.mem_ctrl.writePktSize::4                     0                       # Write request sizes (log2)
system.mem_ctrl.writePktSize::5                     0                       # Write request sizes (log2)
system.mem_ctrl.writePktSize::6                     0                       # Write request sizes (log2)
system.mem_ctrl.rdQLenPdf::0                     2098                       # What read queue length does an incoming req see
system.mem_ctrl.rdQLenPdf::1                      341                       # What read queue length does an incoming req see
system.mem_ctrl.rdQLenPdf::2                       78                       # What read queue length does an incoming req see
system.mem_ctrl.rdQLenPdf::3                       17                       # What read queue length does an incoming req see
system.mem_ctrl.rdQLenPdf::4                        4                       # What read queue length does an incoming req see
system.mem_ctrl.rdQLenPdf::5                        0                       # What read queue length does an incoming req see
system.mem_ctrl.rdQLenPdf::6                        0                       # What read queue length does an incoming req see
system.mem_ctrl.rdQLenPdf::7                        0                       # What read queue length does an incoming req see
system.mem_ctrl.rdQLenPdf::8                        0                       # What read queue length does an incoming req see
system.mem_ctrl.rdQLenPdf::9                        0                       # What read queue length does an incoming req see
system.mem_ctrl.rdQLenPdf::10                       0                       # What read queue length does an incoming req see
system.mem_ctrl.rdQLenPdf::11                       0                       # What read queue length does an incoming req see
system.mem_ctrl.rdQLenPdf::12                       0                       # What read queue length does an incoming req see
system.mem_ctrl.rdQLenPdf::13                       0                       # What read queue length does an incoming req see
system.mem_ctrl.rdQLenPdf::14                       0                       # What read queue length does an incoming req see
system.mem_ctrl.rdQLenPdf::15                       0                       # What read queue length does an incoming req see
system.mem_ctrl.rdQLenPdf::16                       0                       # What read queue length does an incoming req see
system.mem_ctrl.rdQLenPdf::17                       0                       # What read queue length does an incoming req see
system.mem_ctrl.rdQLenPdf::18                       0                       # What read queue length does an incoming req see
system.mem_ctrl.rdQLenPdf::19                       0                       # What read queue length does an incoming req see
system.mem_ctrl.rdQLenPdf::20                       0                       # What read queue length does an incoming req see
system.mem_ctrl.rdQLenPdf::21                       0                       # What read queue length does an incoming req see
system.mem_ctrl.rdQLenPdf::22                       0                       # What read queue length does an incoming req see
system.mem_ctrl.rdQLenPdf::23                       0                       # What read queue length does an incoming req see
system.mem_ctrl.rdQLenPdf::24                       0                       # What read queue length does an incoming req see
system.mem_ctrl.rdQLenPdf::25                       0                       # What read queue length does an incoming req see
system.mem_ctrl.rdQLenPdf::26                       0                       # What read queue length does an incoming req see
system.mem_ctrl.rdQLenPdf::27                       0                       # What read queue length does an incoming req see
system.mem_ctrl.rdQLenPdf::28                       0                       # What read queue length does an incoming req see
system.mem_ctrl.rdQLenPdf::29                       0                       # What read queue length does an incoming req see
system.mem_ctrl.rdQLenPdf::30                       0                       # What read queue length does an incoming req see
system.mem_ctrl.rdQLenPdf::31                       0                       # What read queue length does an incoming req see
system.mem_ctrl.wrQLenPdf::0                        0                       # What write queue length does an incoming req see
system.mem_ctrl.wrQLenPdf::1                        0                       # What write queue length does an incoming req see
system.mem_ctrl.wrQLenPdf::2                        0                       # What write queue length does an incoming req see
system.mem_ctrl.wrQLenPdf::3                        0                       # What write queue length does an incoming req see
system.mem_ctrl.wrQLenPdf::4                        0                       # What write queue length does an incoming req see
system.mem_ctrl.wrQLenPdf::5                        0                       # What write queue length does an incoming req see
system.mem_ctrl.wrQLenPdf::6                        0                       # What write queue length does an incoming req see
system.mem_ctrl.wrQLenPdf::7                        0                       # What write queue length does an incoming req see
system.mem_ctrl.wrQLenPdf::8                        0                       # What write queue length does an incoming req see
system.mem_ctrl.wrQLenPdf::9                        0                       # What write queue length does an incoming req see
system.mem_ctrl.wrQLenPdf::10                       0                       # What write queue length does an incoming req see
system.mem_ctrl.wrQLenPdf::11                       0                       # What write queue length does an incoming req see
system.mem_ctrl.wrQLenPdf::12                       0                       # What write queue length does an incoming req see
system.mem_ctrl.wrQLenPdf::13                       0                       # What write queue length does an incoming req see
system.mem_ctrl.wrQLenPdf::14                       0                       # What write queue length does an incoming req see
system.mem_ctrl.wrQLenPdf::15                       0                       # What write queue length does an incoming req see
system.mem_ctrl.wrQLenPdf::16                       0                       # What write queue length does an incoming req see
system.mem_ctrl.wrQLenPdf::17                       0                       # What write queue length does an incoming req see
system.mem_ctrl.wrQLenPdf::18                       0                       # What write queue length does an incoming req see
system.mem_ctrl.wrQLenPdf::19                       0                       # What write queue length does an incoming req see
system.mem_ctrl.wrQLenPdf::20                       0                       # What write queue length does an incoming req see
system.mem_ctrl.wrQLenPdf::21                       0                       # What write queue length does an incoming req see
system.mem_ctrl.wrQLenPdf::22                       0                       # What write queue length does an incoming req see
system.mem_ctrl.wrQLenPdf::23                       0                       # What write queue length does an incoming req see
system.mem_ctrl.wrQLenPdf::24                       0                       # What write queue length does an incoming req see
system.mem_ctrl.wrQLenPdf::25                       0                       # What write queue length does an incoming req see
system.mem_ctrl.wrQLenPdf::26                       0                       # What write queue length does an incoming req see
system.mem_ctrl.wrQLenPdf::27                       0                       # What write queue length does an incoming req see
system.mem_ctrl.wrQLenPdf::28                       0                       # What write queue length does an incoming req see
system.mem_ctrl.wrQLenPdf::29                       0                       # What write queue length does an incoming req see
system.mem_ctrl.wrQLenPdf::30                       0                       # What write queue length does an incoming req see
system.mem_ctrl.wrQLenPdf::31                       0                       # What write queue length does an incoming req see
system.mem_ctrl.wrQLenPdf::32                       0                       # What write queue length does an incoming req see
system.mem_ctrl.wrQLenPdf::33                       0                       # What write queue length does an incoming req see
system.mem_ctrl.wrQLenPdf::34                       0                       # What write queue length does an incoming req see
system.mem_ctrl.wrQLenPdf::35                       0                       # What write queue length does an incoming req see
system.mem_ctrl.wrQLenPdf::36                       0                       # What write queue length does an incoming req see
system.mem_ctrl.wrQLenPdf::37                       0                       # What write queue length does an incoming req see
system.mem_ctrl.wrQLenPdf::38                       0                       # What write queue length does an incoming req see
system.mem_ctrl.wrQLenPdf::39                       0                       # What write queue length does an incoming req see
system.mem_ctrl.wrQLenPdf::40                       0                       # What write queue length does an incoming req see
system.mem_ctrl.wrQLenPdf::41                       0                       # What write queue length does an incoming req see
system.mem_ctrl.wrQLenPdf::42                       0                       # What write queue length does an incoming req see
system.mem_ctrl.wrQLenPdf::43                       0                       # What write queue length does an incoming req see
system.mem_ctrl.wrQLenPdf::44                       0                       # What write queue length does an incoming req see
system.mem_ctrl.wrQLenPdf::45                       0                       # What write queue length does an incoming req see
system.mem_ctrl.wrQLenPdf::46                       0                       # What write queue length does an incoming req see
system.mem_ctrl.wrQLenPdf::47                       0                       # What write queue length does an incoming req see
system.mem_ctrl.wrQLenPdf::48                       0                       # What write queue length does an incoming req see
system.mem_ctrl.wrQLenPdf::49                       0                       # What write queue length does an incoming req see
system.mem_ctrl.wrQLenPdf::50                       0                       # What write queue length does an incoming req see
system.mem_ctrl.wrQLenPdf::51                       0                       # What write queue length does an incoming req see
system.mem_ctrl.wrQLenPdf::52                       0                       # What write queue length does an incoming req see
system.mem_ctrl.wrQLenPdf::53                       0                       # What write queue length does an incoming req see
system.mem_ctrl.wrQLenPdf::54                       0                       # What write queue length does an incoming req see
system.mem_ctrl.wrQLenPdf::55                       0                       # What write queue length does an incoming req see
system.mem_ctrl.wrQLenPdf::56                       0                       # What write queue length does an incoming req see
system.mem_ctrl.wrQLenPdf::57                       0                       # What write queue length does an incoming req see
system.mem_ctrl.wrQLenPdf::58                       0                       # What write queue length does an incoming req see
system.mem_ctrl.wrQLenPdf::59                       0                       # What write queue length does an incoming req see
system.mem_ctrl.wrQLenPdf::60                       0                       # What write queue length does an incoming req see
system.mem_ctrl.wrQLenPdf::61                       0                       # What write queue length does an incoming req see
system.mem_ctrl.wrQLenPdf::62                       0                       # What write queue length does an incoming req see
system.mem_ctrl.wrQLenPdf::63                       0                       # What write queue length does an incoming req see
system.mem_ctrl.bytesPerActivate::samples          854                       # Bytes accessed per row activation
system.mem_ctrl.bytesPerActivate::mean     187.728337                       # Bytes accessed per row activation
system.mem_ctrl.bytesPerActivate::gmean    117.976634                       # Bytes accessed per row activation
system.mem_ctrl.bytesPerActivate::stdev    249.205935                       # Bytes accessed per row activation
system.mem_ctrl.bytesPerActivate::0-127           446     52.22%     52.22% # Bytes accessed per row activation
system.mem_ctrl.bytesPerActivate::128-255          257     30.09%     82.32% # Bytes accessed per row activation
system.mem_ctrl.bytesPerActivate::256-383           41      4.80%     87.12% # Bytes accessed per row activation
system.mem_ctrl.bytesPerActivate::384-511           31      3.63%     90.75% # Bytes accessed per row activation
system.mem_ctrl.bytesPerActivate::512-639           13      1.52%     92.27% # Bytes accessed per row activation
system.mem_ctrl.bytesPerActivate::640-767            3      0.35%     92.62% # Bytes accessed per row activation
system.mem_ctrl.bytesPerActivate::768-895            8      0.94%     93.56% # Bytes accessed per row activation
system.mem_ctrl.bytesPerActivate::896-1023            3      0.35%     93.91% # Bytes accessed per row activation
system.mem_ctrl.bytesPerActivate::1024-1151           52      6.09%    100.00% # Bytes accessed per row activation
system.mem_ctrl.bytesPerActivate::total           854                       # Bytes accessed per row activation
system.mem_ctrl.masterReadBytes::.cpu.inst        54912                       # Per-master bytes read from memory
system.mem_ctrl.masterReadBytes::.cpu.data       107520                       # Per-master bytes read from memory
system.mem_ctrl.masterReadRate::.cpu.inst 5252133.894599030726                       # Per-master bytes read from memory rate (Bytes/sec)
system.mem_ctrl.masterReadRate::.cpu.data 10283898.534879220650                       # Per-master bytes read from memory rate (Bytes/sec)
system.mem_ctrl.masterReadAccesses::.cpu.inst          858                       # Per-master read serviced memory accesses
system.mem_ctrl.masterReadAccesses::.cpu.data         1680                       # Per-master read serviced memory accesses
system.mem_ctrl.masterReadTotalLat::.cpu.inst     47767500                       # Per-master read total memory access latency
system.mem_ctrl.masterReadTotalLat::.cpu.data     68442000                       # Per-master read total memory access latency
system.mem_ctrl.masterReadAvgLat::.cpu.inst     55673.08                       # Per-master read average memory access latency
system.mem_ctrl.masterReadAvgLat::.cpu.data     40739.29                       # Per-master read average memory access latency
system.mem_ctrl.totQLat                      68622000                       # Total ticks spent queuing
system.mem_ctrl.totMemAccLat                116209500                       # Total ticks spent from burst creation until serviced by the DRAM
system.mem_ctrl.totBusLat                    12690000                       # Total ticks spent in databus transfers
system.mem_ctrl.avgQLat                      27037.83                       # Average queueing delay per DRAM burst
system.mem_ctrl.avgBusLat                     5000.00                       # Average bus latency per DRAM burst
system.mem_ctrl.avgMemAccLat                 45787.83                       # Average memory access latency per DRAM burst
system.mem_ctrl.avgRdBW                         15.54                       # Average DRAM read bandwidth in MiByte/s
system.mem_ctrl.avgWrBW                          0.00                       # Average achieved write bandwidth in MiByte/s
system.mem_ctrl.avgRdBWSys                      15.54                       # Average system read bandwidth in MiByte/s
system.mem_ctrl.avgWrBWSys                       0.00                       # Average system write bandwidth in MiByte/s
system.mem_ctrl.peakBW                       12800.00                       # Theoretical peak bandwidth in MiByte/s
system.mem_ctrl.busUtil                          0.12                       # Data bus utilization in percentage
system.mem_ctrl.busUtilRead                      0.12                       # Data bus utilization in percentage for reads
system.mem_ctrl.busUtilWrite                     0.00                       # Data bus utilization in percentage for writes
system.mem_ctrl.avgRdQLen                        1.21                       # Average read queue length when enqueuing
system.mem_ctrl.avgWrQLen                        0.00                       # Average write queue length when enqueuing
system.mem_ctrl.readRowHits                      1675                       # Number of row buffer hits during reads
system.mem_ctrl.writeRowHits                        0                       # Number of row buffer hits during writes
system.mem_ctrl.readRowHitRate                  66.00                       # Row buffer hit rate for reads
system.mem_ctrl.writeRowHitRate                   nan                       # Row buffer hit rate for writes
system.mem_ctrl.avgGap                     4119419.82                       # Average gap between requests
system.mem_ctrl.pageHitRate                     66.00                       # Row buffer hit rate, read and write combined
system.mem_ctrl_0.actEnergy                   4441080                       # Energy for activate commands per rank (pJ)
system.mem_ctrl_0.preEnergy                   2341515                       # Energy for precharge commands per rank (pJ)
system.mem_ctrl_0.readEnergy                 10645740                       # Energy for read commands per rank (pJ)
system.mem_ctrl_0.writeEnergy                       0                       # Energy for write commands per rank (pJ)
system.mem_ctrl_0.refreshEnergy          332520240.000000                       # Energy for refresh commands per rank (pJ)
system.mem_ctrl_0.actBackEnergy              81402840                       # Energy for active background per rank (pJ)
system.mem_ctrl_0.preBackEnergy               8861280                       # Energy for precharge background per rank (pJ)
system.mem_ctrl_0.actPowerDownEnergy       1202975880                       # Energy for active power-down per rank (pJ)
system.mem_ctrl_0.prePowerDownEnergy        530732640                       # Energy for precharge power-down per rank (pJ)
system.mem_ctrl_0.selfRefreshEnergy        1505948520                       # Energy for self refresh per rank (pJ)
system.mem_ctrl_0.totalEnergy              3679869735                       # Total energy per rank (pJ)
system.mem_ctrl_0.averagePower             351.966211                       # Core power per rank (mW)
system.mem_ctrl_0.totalIdleTime           10253670750                       # Total Idle time Per DRAM Rank
system.mem_ctrl_0.memoryStateTime::IDLE       8196500                       # Time in different power states
system.mem_ctrl_0.memoryStateTime::REF      140660000                       # Time in different power states
system.mem_ctrl_0.memoryStateTime::SREF    6233369750                       # Time in different power states
system.mem_ctrl_0.memoryStateTime::PRE_PDN   1382011750                       # Time in different power states
system.mem_ctrl_0.memoryStateTime::ACT       52603500                       # Time in different power states
system.mem_ctrl_0.memoryStateTime::ACT_PDN   2638337500                       # Time in different power states
system.mem_ctrl_1.actEnergy                   1720740                       # Energy for activate commands per rank (pJ)
system.mem_ctrl_1.preEnergy                    899415                       # Energy for precharge commands per rank (pJ)
system.mem_ctrl_1.readEnergy                  7475580                       # Energy for read commands per rank (pJ)
system.mem_ctrl_1.writeEnergy                       0                       # Energy for write commands per rank (pJ)
system.mem_ctrl_1.refreshEnergy          60849360.000000                       # Energy for refresh commands per rank (pJ)
system.mem_ctrl_1.actBackEnergy              23323830                       # Energy for active background per rank (pJ)
system.mem_ctrl_1.preBackEnergy               3708000                       # Energy for precharge background per rank (pJ)
system.mem_ctrl_1.actPowerDownEnergy        214733250                       # Energy for active power-down per rank (pJ)
system.mem_ctrl_1.prePowerDownEnergy         95704320                       # Energy for precharge power-down per rank (pJ)
system.mem_ctrl_1.selfRefreshEnergy        2334518820                       # Energy for self refresh per rank (pJ)
system.mem_ctrl_1.totalEnergy              2742933315                       # Total energy per rank (pJ)
system.mem_ctrl_1.averagePower             262.351636                       # Core power per rank (mW)
system.mem_ctrl_1.totalIdleTime           10394191750                       # Total Idle time Per DRAM Rank
system.mem_ctrl_1.memoryStateTime::IDLE       6976000                       # Time in different power states
system.mem_ctrl_1.memoryStateTime::REF       25740000                       # Time in different power states
system.mem_ctrl_1.memoryStateTime::SREF    9674235750                       # Time in different power states
system.mem_ctrl_1.memoryStateTime::PRE_PDN    249221000                       # Time in different power states
system.mem_ctrl_1.memoryStateTime::ACT       28037500                       # Time in different power states
system.mem_ctrl_1.memoryStateTime::ACT_PDN    470968750                       # Time in different power states
system.pwrStateResidencyTicks::UNDEFINED  10455179000                       # Cumulative time (in ticks) in various power states
system.cpu.branchPred.lookups                 4960858                       # Number of BP lookups
system.cpu.branchPred.condPredicted           4960858                       # Number of conditional branches predicted
system.cpu.branchPred.condIncorrect            242536                       # Number of conditional branches incorrect
system.cpu.branchPred.BTBLookups              4131045                       # Number of BTB lookups
system.cpu.branchPred.BTBHits                       0                       # Number of BTB hits
system.cpu.branchPred.BTBCorrect                    0                       # Number of correct BTB predictions (this stat may not work properly.
system.cpu.branchPred.BTBHitPct              0.000000                       # BTB Hit Percentage
system.cpu.branchPred.usedRAS                  232459                       # Number of times the RAS was used to get a target.
system.cpu.branchPred.RASInCorrect              21308                       # Number of incorrect RAS predictions.
system.cpu.branchPred.indirectLookups         4131045                       # Number of indirect predictor lookups.
system.cpu.branchPred.indirectHits            1839155                       # Number of indirect target hits.
system.cpu.branchPred.indirectMisses          2291890                       # Number of indirect misses.
system.cpu.branchPredindirectMispredicted       119060                       # Number of mispredicted indirect branches.
system.cpu.dtb.walker.pwrStateResidencyTicks::UNDEFINED  10455179000                       # Cumulative time (in ticks) in various power states
system.cpu.dtb.rdAccesses                     7417479                       # TLB accesses on read requests
system.cpu.dtb.wrAccesses                     2691987                       # TLB accesses on write requests
system.cpu.dtb.rdMisses                          3133                       # TLB misses on read requests
system.cpu.dtb.wrMisses                           279                       # TLB misses on write requests
system.cpu.apic_clk_domain.clock                 8000                       # Clock period in ticks
system.cpu.interrupts.pwrStateResidencyTicks::UNDEFINED  10455179000                       # Cumulative time (in ticks) in various power states
system.cpu.itb.walker.pwrStateResidencyTicks::UNDEFINED  10455179000                       # Cumulative time (in ticks) in various power states
system.cpu.itb.rdAccesses                           0                       # TLB accesses on read requests
system.cpu.itb.wrAccesses                     3848832                       # TLB accesses on write requests
system.cpu.itb.rdMisses                             0                       # TLB misses on read requests
system.cpu.itb.wrMisses                           232                       # TLB misses on write requests
system.cpu.workload.numSyscalls                    23                       # Number of system calls
system.cpu.pwrStateResidencyTicks::ON     10455179000                       # Cumulative time (in ticks) in various power states
system.cpu.numCycles                         20910359                       # number of cpu cycles simulated
system.cpu.numWorkItemsStarted                      0                       # number of work items this cpu started
system.cpu.numWorkItemsCompleted                    0                       # number of work items this cpu completed
system.cpu.fetch.icacheStallCycles             252366                       # Number of cycles fetch is stalled on an Icache miss
system.cpu.fetch.Insts                       29627352                       # Number of instructions fetch has processed
system.cpu.fetch.Branches                     4960858                       # Number of branches that fetch encountered
system.cpu.fetch.predictedBranches            2071614                       # Number of branches that fetch has predicted taken
system.cpu.fetch.Cycles                      20368999                       # Number of cycles fetch has run and was not squashing or blocked
system.cpu.fetch.SquashCycles                  494778                       # Number of cycles fetch has spent squashing
system.cpu.fetch.MiscStallCycles                  125                       # Number of cycles fetch has spent waiting on interrupts, or bad addresses, or out of MSHRs
system.cpu.fetch.PendingTrapStallCycles          1739                       # Number of stall cycles due to pending traps
system.cpu.fetch.PendingQuiesceStallCycles           39                       # Number of stall cycles due to pending quiesce instructions
system.cpu.fetch.IcacheWaitRetryStallCycles           66                       # Number of stall cycles due to full MSHR
system.cpu.fetch.CacheLines                   3848658                       # Number of cache lines fetched
system.cpu.fetch.IcacheSquashes                   638                       # Number of outstanding Icache misses that were squashed
system.cpu.fetch.rateDist::samples           20870723                       # Number of instructions fetched each cycle (Total)
system.cpu.fetch.rateDist::mean              2.393611                       # Number of instructions fetched each cycle (Total)
system.cpu.fetch.rateDist::stdev             1.822494                       # Number of instructions fetched each cycle (Total)
system.cpu.fetch.rateDist::underflows               0      0.00%      0.00% # Number of instructions fetched each cycle (Total)
system.cpu.fetch.rateDist::0                  6815628     32.66%     32.66% # Number of instructions fetched each cycle (Total)
system.cpu.fetch.rateDist::1                   915436      4.39%     37.04% # Number of instructions fetched each cycle (Total)
system.cpu.fetch.rateDist::2                  1185848      5.68%     42.72% # Number of instructions fetched each cycle (Total)
system.cpu.fetch.rateDist::3                  1145983      5.49%     48.22% # Number of instructions fetched each cycle (Total)
system.cpu.fetch.rateDist::4                 10807828     51.78%    100.00% # Number of instructions fetched each cycle (Total)
system.cpu.fetch.rateDist::overflows                0      0.00%    100.00% # Number of instructions fetched each cycle (Total)
system.cpu.fetch.rateDist::min_value                0                       # Number of instructions fetched each cycle (Total)
system.cpu.fetch.rateDist::max_value                4                       # Number of instructions fetched each cycle (Total)
system.cpu.fetch.rateDist::total             20870723                       # Number of instructions fetched each cycle (Total)
system.cpu.fetch.branchRate                  0.237244                       # Number of branch fetches per cycle
system.cpu.fetch.rate                        1.416874                       # Number of inst fetches per cycle
system.cpu.decode.IdleCycles                  2851681                       # Number of cycles decode is idle
system.cpu.decode.BlockedCycles               6557277                       # Number of cycles decode is blocked
system.cpu.decode.RunCycles                   8001966                       # Number of cycles decode is running
system.cpu.decode.UnblockCycles               3212410                       # Number of cycles decode is unblocking
system.cpu.decode.SquashCycles                 247389                       # Number of cycles decode is squashing
system.cpu.decode.DecodedInsts               42845013                       # Number of instructions handled by decode
system.cpu.decode.SquashedInsts               1081917                       # Number of squashed instructions handled by decode
system.cpu.rename.SquashCycles                 247389                       # Number of cycles rename is squashing
system.cpu.rename.IdleCycles                  5090022                       # Number of cycles rename is idle
system.cpu.rename.BlockCycles                 1164110                       # Number of cycles rename is blocking
system.cpu.rename.serializeStallCycles           2349                       # count of cycles rename stalled for serializing inst
system.cpu.rename.RunCycles                   8937471                       # Number of cycles rename is running
system.cpu.rename.UnblockCycles               5429382                       # Number of cycles rename is unblocking
system.cpu.rename.RenamedInsts               41597117                       # Number of instructions processed by rename
system.cpu.rename.SquashedInsts                546599                       # Number of squashed instructions processed by rename
system.cpu.rename.ROBFullEvents                   312                       # Number of times rename has blocked due to ROB full
system.cpu.rename.IQFullEvents                3272443                       # Number of times rename has blocked due to IQ full
system.cpu.rename.LQFullEvents                 638569                       # Number of times rename has blocked due to LQ full
system.cpu.rename.SQFullEvents                 630061                       # Number of times rename has blocked due to SQ full
system.cpu.rename.FullRegisterEvents            34883                       # Number of times there has been no free registers
system.cpu.rename.RenamedOperands            47723015                       # Number of destination operands rename has renamed
system.cpu.rename.RenameLookups             105289068                       # Number of register rename lookups that rename has made
system.cpu.rename.int_rename_lookups         65572527                       # Number of integer rename lookups
system.cpu.rename.fp_rename_lookups             44363                       # Number of floating rename lookups
system.cpu.rename.CommittedMaps              37258541                       # Number of HB maps that are committed
system.cpu.rename.UndoneMaps                 10464474                       # Number of HB maps that are undone due to squashing
system.cpu.rename.serializingInsts                 57                       # count of serializing insts renamed
system.cpu.rename.tempSerializingInsts             52                       # count of temporary serializing insts renamed
system.cpu.rename.skidInsts                   9560033                       # count of insts added to the skid buffer
system.cpu.memDep0.insertedLoads              8525863                       # Number of loads inserted to the mem dependence unit.
system.cpu.memDep0.insertedStores             3152042                       # Number of stores inserted to the mem dependence unit.
system.cpu.memDep0.conflictingLoads           2312744                       # Number of conflicting loads.
system.cpu.memDep0.conflictingStores           649656                       # Number of conflicting stores.
system.cpu.iq.iqInstsAdded                   40562299                       # Number of instructions added to the IQ (excludes non-spec)
system.cpu.iq.iqNonSpecInstsAdded               12545                       # Number of non-speculative instructions added to the IQ
system.cpu.iq.iqInstsIssued                  37056971                       # Number of instructions issued
system.cpu.iq.iqSquashedInstsIssued            396191                       # Number of squashed instructions issued
system.cpu.iq.iqSquashedInstsExamined         8228687                       # Number of squashed instructions iterated over during squash; mainly for profiling
system.cpu.iq.iqSquashedOperandsExamined     11743863                       # Number of squashed operands that are examined and possibly removed from graph
system.cpu.iq.iqSquashedNonSpecRemoved          12522                       # Number of squashed non-spec instructions that were removed
system.cpu.iq.issued_per_cycle::samples      20870723                       # Number of insts issued each cycle
system.cpu.iq.issued_per_cycle::mean         1.775548                       # Number of insts issued each cycle
system.cpu.iq.issued_per_cycle::stdev        1.009774                       # Number of insts issued each cycle
system.cpu.iq.issued_per_cycle::underflows            0      0.00%      0.00% # Number of insts issued each cycle
system.cpu.iq.issued_per_cycle::0             3141682     15.05%     15.05% # Number of insts issued each cycle
system.cpu.iq.issued_per_cycle::1             4023041     19.28%     34.33% # Number of insts issued each cycle
system.cpu.iq.issued_per_cycle::2             8144282     39.02%     73.35% # Number of insts issued each cycle
system.cpu.iq.issued_per_cycle::3             5501506     26.36%     99.71% # Number of insts issued each cycle
system.cpu.iq.issued_per_cycle::4               60212      0.29%    100.00% # Number of insts issued each cycle
system.cpu.iq.issued_per_cycle::overflows            0      0.00%    100.00% # Number of insts issued each cycle
system.cpu.iq.issued_per_cycle::min_value            0                       # Number of insts issued each cycle
system.cpu.iq.issued_per_cycle::max_value            4                       # Number of insts issued each cycle
system.cpu.iq.issued_per_cycle::total        20870723                       # Number of insts issued each cycle
system.cpu.iq.fu_full::No_OpClass                   0      0.00%      0.00% # attempts to use FU when none available
system.cpu.iq.fu_full::IntAlu                 8970577     63.06%     63.06% # attempts to use FU when none available
system.cpu.iq.fu_full::IntMult                      0      0.00%     63.06% # attempts to use FU when none available
system.cpu.iq.fu_full::IntDiv                       0      0.00%     63.06% # attempts to use FU when none available
system.cpu.iq.fu_full::FloatAdd                     0      0.00%     63.06% # attempts to use FU when none available
system.cpu.iq.fu_full::FloatCmp                     0      0.00%     63.06% # attempts to use FU when none available
system.cpu.iq.fu_full::FloatCvt                     0      0.00%     63.06% # attempts to use FU when none available
system.cpu.iq.fu_full::FloatMult                    0      0.00%     63.06% # attempts to use FU when none available
system.cpu.iq.fu_full::FloatMultAcc                 0      0.00%     63.06% # attempts to use FU when none available
system.cpu.iq.fu_full::FloatDiv                     0      0.00%     63.06% # attempts to use FU when none available
system.cpu.iq.fu_full::FloatMisc                    0      0.00%     63.06% # attempts to use FU when none available
system.cpu.iq.fu_full::FloatSqrt                    0      0.00%     63.06% # attempts to use FU when none available
system.cpu.iq.fu_full::SimdAdd                    268      0.00%     63.06% # attempts to use FU when none available
system.cpu.iq.fu_full::SimdAddAcc                   0      0.00%     63.06% # attempts to use FU when none available
system.cpu.iq.fu_full::SimdAlu                     90      0.00%     63.06% # attempts to use FU when none available
system.cpu.iq.fu_full::SimdCmp                      0      0.00%     63.06% # attempts to use FU when none available
system.cpu.iq.fu_full::SimdCvt                     78      0.00%     63.06% # attempts to use FU when none available
system.cpu.iq.fu_full::SimdMisc                   146      0.00%     63.06% # attempts to use FU when none available
system.cpu.iq.fu_full::SimdMult                     0      0.00%     63.06% # attempts to use FU when none available
system.cpu.iq.fu_full::SimdMultAcc                  0      0.00%     63.06% # attempts to use FU when none available
system.cpu.iq.fu_full::SimdShift                  124      0.00%     63.07% # attempts to use FU when none available
system.cpu.iq.fu_full::SimdShiftAcc                 0      0.00%     63.07% # attempts to use FU when none available
system.cpu.iq.fu_full::SimdSqrt                     0      0.00%     63.07% # attempts to use FU when none available
system.cpu.iq.fu_full::SimdFloatAdd                 0      0.00%     63.07% # attempts to use FU when none available
system.cpu.iq.fu_full::SimdFloatAlu                 0      0.00%     63.07% # attempts to use FU when none available
system.cpu.iq.fu_full::SimdFloatCmp                 0      0.00%     63.07% # attempts to use FU when none available
system.cpu.iq.fu_full::SimdFloatCvt                 0      0.00%     63.07% # attempts to use FU when none available
system.cpu.iq.fu_full::SimdFloatDiv                 0      0.00%     63.07% # attempts to use FU when none available
system.cpu.iq.fu_full::SimdFloatMisc                0      0.00%     63.07% # attempts to use FU when none available
system.cpu.iq.fu_full::SimdFloatMult                0      0.00%     63.07% # attempts to use FU when none available
system.cpu.iq.fu_full::SimdFloatMultAcc             0      0.00%     63.07% # attempts to use FU when none available
system.cpu.iq.fu_full::SimdFloatSqrt                0      0.00%     63.07% # attempts to use FU when none available
system.cpu.iq.fu_full::SimdAes                      0      0.00%     63.07% # attempts to use FU when none available
system.cpu.iq.fu_full::SimdAesMix                   0      0.00%     63.07% # attempts to use FU when none available
system.cpu.iq.fu_full::SimdSha1Hash                 0      0.00%     63.07% # attempts to use FU when none available
system.cpu.iq.fu_full::SimdSha1Hash2                0      0.00%     63.07% # attempts to use FU when none available
system.cpu.iq.fu_full::SimdSha256Hash               0      0.00%     63.07% # attempts to use FU when none available
system.cpu.iq.fu_full::SimdSha256Hash2              0      0.00%     63.07% # attempts to use FU when none available
system.cpu.iq.fu_full::SimdShaSigma2                0      0.00%     63.07% # attempts to use FU when none available
system.cpu.iq.fu_full::SimdShaSigma3                0      0.00%     63.07% # attempts to use FU when none available
system.cpu.iq.fu_full::MemRead                4445582     31.25%     94.32% # attempts to use FU when none available
system.cpu.iq.fu_full::MemWrite                808480      5.68%    100.00% # attempts to use FU when none available
system.cpu.iq.fu_full::FloatMemRead                 0      0.00%    100.00% # attempts to use FU when none available
system.cpu.iq.fu_full::FloatMemWrite                0      0.00%    100.00% # attempts to use FU when none available
system.cpu.iq.fu_full::IprAccess                    0      0.00%    100.00% # attempts to use FU when none available
system.cpu.iq.fu_full::InstPrefetch                 0      0.00%    100.00% # attempts to use FU when none available
system.cpu.iq.FU_type_0::No_OpClass             28790      0.08%      0.08% # Type of FU issued
system.cpu.iq.FU_type_0::IntAlu              26659315     71.94%     72.02% # Type of FU issued
system.cpu.iq.FU_type_0::IntMult                59915      0.16%     72.18% # Type of FU issued
system.cpu.iq.FU_type_0::IntDiv                    31      0.00%     72.18% # Type of FU issued
system.cpu.iq.FU_type_0::FloatAdd               10019      0.03%     72.21% # Type of FU issued
system.cpu.iq.FU_type_0::FloatCmp                   0      0.00%     72.21% # Type of FU issued
system.cpu.iq.FU_type_0::FloatCvt                   0      0.00%     72.21% # Type of FU issued
system.cpu.iq.FU_type_0::FloatMult                  0      0.00%     72.21% # Type of FU issued
system.cpu.iq.FU_type_0::FloatMultAcc               0      0.00%     72.21% # Type of FU issued
system.cpu.iq.FU_type_0::FloatDiv                   0      0.00%     72.21% # Type of FU issued
system.cpu.iq.FU_type_0::FloatMisc                  0      0.00%     72.21% # Type of FU issued
system.cpu.iq.FU_type_0::FloatSqrt                  0      0.00%     72.21% # Type of FU issued
system.cpu.iq.FU_type_0::SimdAdd                  377      0.00%     72.21% # Type of FU issued
system.cpu.iq.FU_type_0::SimdAddAcc                 0      0.00%     72.21% # Type of FU issued
system.cpu.iq.FU_type_0::SimdAlu                   99      0.00%     72.21% # Type of FU issued
system.cpu.iq.FU_type_0::SimdCmp                    0      0.00%     72.21% # Type of FU issued
system.cpu.iq.FU_type_0::SimdCvt                  151      0.00%     72.21% # Type of FU issued
system.cpu.iq.FU_type_0::SimdMisc                 259      0.00%     72.21% # Type of FU issued
system.cpu.iq.FU_type_0::SimdMult                   0      0.00%     72.21% # Type of FU issued
system.cpu.iq.FU_type_0::SimdMultAcc                0      0.00%     72.21% # Type of FU issued
system.cpu.iq.FU_type_0::SimdShift                186      0.00%     72.21% # Type of FU issued
system.cpu.iq.FU_type_0::SimdShiftAcc               0      0.00%     72.21% # Type of FU issued
system.cpu.iq.FU_type_0::SimdSqrt                   0      0.00%     72.21% # Type of FU issued
system.cpu.iq.FU_type_0::SimdFloatAdd               0      0.00%     72.21% # Type of FU issued
system.cpu.iq.FU_type_0::SimdFloatAlu               0      0.00%     72.21% # Type of FU issued
system.cpu.iq.FU_type_0::SimdFloatCmp               0      0.00%     72.21% # Type of FU issued
system.cpu.iq.FU_type_0::SimdFloatCvt               0      0.00%     72.21% # Type of FU issued
system.cpu.iq.FU_type_0::SimdFloatDiv               0      0.00%     72.21% # Type of FU issued
system.cpu.iq.FU_type_0::SimdFloatMisc              0      0.00%     72.21% # Type of FU issued
system.cpu.iq.FU_type_0::SimdFloatMult              0      0.00%     72.21% # Type of FU issued
system.cpu.iq.FU_type_0::SimdFloatMultAcc            0      0.00%     72.21% # Type of FU issued
system.cpu.iq.FU_type_0::SimdFloatSqrt              0      0.00%     72.21% # Type of FU issued
system.cpu.iq.FU_type_0::SimdAes                    0      0.00%     72.21% # Type of FU issued
system.cpu.iq.FU_type_0::SimdAesMix                 0      0.00%     72.21% # Type of FU issued
system.cpu.iq.FU_type_0::SimdSha1Hash               0      0.00%     72.21% # Type of FU issued
system.cpu.iq.FU_type_0::SimdSha1Hash2              0      0.00%     72.21% # Type of FU issued
system.cpu.iq.FU_type_0::SimdSha256Hash             0      0.00%     72.21% # Type of FU issued
system.cpu.iq.FU_type_0::SimdSha256Hash2            0      0.00%     72.21% # Type of FU issued
system.cpu.iq.FU_type_0::SimdShaSigma2              0      0.00%     72.21% # Type of FU issued
system.cpu.iq.FU_type_0::SimdShaSigma3              0      0.00%     72.21% # Type of FU issued
system.cpu.iq.FU_type_0::MemRead              7503123     20.25%     92.46% # Type of FU issued
system.cpu.iq.FU_type_0::MemWrite             2714075      7.32%     99.78% # Type of FU issued
system.cpu.iq.FU_type_0::FloatMemRead           40128      0.11%     99.89% # Type of FU issued
system.cpu.iq.FU_type_0::FloatMemWrite          40503      0.11%    100.00% # Type of FU issued
system.cpu.iq.FU_type_0::IprAccess                  0      0.00%    100.00% # Type of FU issued
system.cpu.iq.FU_type_0::InstPrefetch               0      0.00%    100.00% # Type of FU issued
system.cpu.iq.FU_type_0::total               37056971                       # Type of FU issued
system.cpu.iq.rate                           1.772182                       # Inst issue rate
system.cpu.iq.fu_busy_cnt                    14225345                       # FU busy when requested
system.cpu.iq.fu_busy_rate                   0.383878                       # FU busy rate (busy events/executed inst)
system.cpu.iq.int_inst_queue_reads          109420845                       # Number of integer instruction queue reads
system.cpu.iq.int_inst_queue_writes          48715716                       # Number of integer instruction queue writes
system.cpu.iq.int_inst_queue_wakeup_accesses     36070463                       # Number of integer instruction queue wakeup accesses
system.cpu.iq.fp_inst_queue_reads              185356                       # Number of floating instruction queue reads
system.cpu.iq.fp_inst_queue_writes              92705                       # Number of floating instruction queue writes
system.cpu.iq.fp_inst_queue_wakeup_accesses        92184                       # Number of floating instruction queue wakeup accesses
system.cpu.iq.vec_inst_queue_reads                  0                       # Number of vector instruction queue reads
system.cpu.iq.vec_inst_queue_writes                 0                       # Number of vector instruction queue writes
system.cpu.iq.vec_inst_queue_wakeup_accesses            0                       # Number of vector instruction queue wakeup accesses
system.cpu.iq.int_alu_accesses               51160469                       # Number of integer alu accesses
system.cpu.iq.fp_alu_accesses                   93057                       # Number of floating point alu accesses
system.cpu.iq.vec_alu_accesses                      0                       # Number of vector alu accesses
system.cpu.iew.lsq.thread0.forwLoads          1155334                       # Number of loads that had data forwarded from stores
system.cpu.iew.lsq.thread0.invAddrLoads             0                       # Number of loads ignored due to an invalid address
system.cpu.iew.lsq.thread0.squashedLoads      2305967                       # Number of loads squashed
system.cpu.iew.lsq.thread0.ignoredResponses        11060                       # Number of memory responses ignored because the instruction is squashed
system.cpu.iew.lsq.thread0.memOrderViolation         4908                       # Number of memory ordering violations
system.cpu.iew.lsq.thread0.squashedStores       671633                       # Number of stores squashed
system.cpu.iew.lsq.thread0.invAddrSwpfs             0                       # Number of software prefetches ignored due to an invalid address
system.cpu.iew.lsq.thread0.blockedLoads             0                       # Number of blocked loads due to partial load-store forwarding
system.cpu.iew.lsq.thread0.rescheduledLoads            1                       # Number of loads that were rescheduled
system.cpu.iew.lsq.thread0.cacheBlocked            35                       # Number of times an access to memory failed due to the cache being blocked
system.cpu.iew.iewIdleCycles                        0                       # Number of cycles IEW is idle
system.cpu.iew.iewSquashCycles                 247389                       # Number of cycles IEW is squashing
system.cpu.iew.iewBlockCycles                  209826                       # Number of cycles IEW is blocking
system.cpu.iew.iewUnblockCycles                 16273                       # Number of cycles IEW is unblocking
system.cpu.iew.iewDispatchedInsts            40574844                       # Number of instructions dispatched to IQ
system.cpu.iew.iewDispSquashedInsts            238690                       # Number of squashed instructions skipped by dispatch
system.cpu.iew.iewDispLoadInsts               8525863                       # Number of dispatched load instructions
system.cpu.iew.iewDispStoreInsts              3152042                       # Number of dispatched store instructions
system.cpu.iew.iewDispNonSpecInsts               4326                       # Number of dispatched non-speculative instructions
system.cpu.iew.iewIQFullEvents                   7292                       # Number of times the IQ has become full, causing a stall
system.cpu.iew.iewLSQFullEvents                  5432                       # Number of times the LSQ has become full, causing a stall
system.cpu.iew.memOrderViolationEvents           4908                       # Number of memory order violations
system.cpu.iew.predictedTakenIncorrect          78687                       # Number of branches that were predicted taken incorrectly
system.cpu.iew.predictedNotTakenIncorrect       190778                       # Number of branches that were predicted not taken incorrectly
system.cpu.iew.branchMispredicts               269465                       # Number of branch mispredicts detected at execute
system.cpu.iew.iewExecutedInsts              36330521                       # Number of executed instructions
system.cpu.iew.iewExecLoadInsts               7417424                       # Number of load instructions executed
system.cpu.iew.iewExecSquashedInsts            726450                       # Number of squashed instructions skipped in execute
system.cpu.iew.exec_swp                             0                       # number of swp insts executed
system.cpu.iew.exec_nop                             0                       # number of nop insts executed
system.cpu.iew.exec_refs                     10109409                       # number of memory reference insts executed
system.cpu.iew.exec_branches                  3618828                       # Number of branches executed
system.cpu.iew.exec_stores                    2691985                       # Number of stores executed
system.cpu.iew.exec_rate                     1.737441                       # Inst execution rate
system.cpu.iew.wb_sent                       36181106                       # cumulative count of insts sent to commit
system.cpu.iew.wb_count                      36162647                       # cumulative count of insts written-back
system.cpu.iew.wb_producers                  28249809                       # num instructions producing a value
system.cpu.iew.wb_consumers                  40086070                       # num instructions consuming a value
system.cpu.iew.wb_rate                       1.729413                       # insts written-back per cycle
system.cpu.iew.wb_fanout                     0.704729                       # average fanout of values written-back
system.cpu.commit.commitSquashedInsts         7726992                       # The number of squashed insts skipped by commit
system.cpu.commit.commitNonSpecStalls              23                       # The number of times commit has been forced to stall to communicate backwards
system.cpu.commit.branchMispredicts            242626                       # The number of times a branch was mispredicted
system.cpu.commit.committed_per_cycle::samples     20480709                       # Number of insts commited each cycle
system.cpu.commit.committed_per_cycle::mean     1.579347                       # Number of insts commited each cycle
system.cpu.commit.committed_per_cycle::stdev     1.662975                       # Number of insts commited each cycle
system.cpu.commit.committed_per_cycle::underflows            0      0.00%      0.00% # Number of insts commited each cycle
system.cpu.commit.committed_per_cycle::0      8840467     43.16%     43.16% # Number of insts commited each cycle
system.cpu.commit.committed_per_cycle::1      2893633     14.13%     57.29% # Number of insts commited each cycle
system.cpu.commit.committed_per_cycle::2      1811478      8.84%     66.14% # Number of insts commited each cycle
system.cpu.commit.committed_per_cycle::3      1910957      9.33%     75.47% # Number of insts commited each cycle
system.cpu.commit.committed_per_cycle::4      5024174     24.53%    100.00% # Number of insts commited each cycle
system.cpu.commit.committed_per_cycle::overflows            0      0.00%    100.00% # Number of insts commited each cycle
system.cpu.commit.committed_per_cycle::min_value            0                       # Number of insts commited each cycle
system.cpu.commit.committed_per_cycle::max_value            4                       # Number of insts commited each cycle
system.cpu.commit.committed_per_cycle::total     20480709                       # Number of insts commited each cycle
system.cpu.commit.committedInsts             18836239                       # Number of instructions committed
system.cpu.commit.committedOps               32346156                       # Number of ops (including micro ops) committed
system.cpu.commit.swp_count                         0                       # Number of s/w prefetches committed
system.cpu.commit.refs                        8700305                       # Number of memory references committed
system.cpu.commit.loads                       6219896                       # Number of loads committed
system.cpu.commit.membars                           0                       # Number of memory barriers committed
system.cpu.commit.branches                    3419410                       # Number of branches committed
system.cpu.commit.vec_insts                         0                       # Number of committed Vector instructions.
system.cpu.commit.fp_insts                      92099                       # Number of committed floating point instructions.
system.cpu.commit.int_insts                  32294501                       # Number of committed integer instructions.
system.cpu.commit.function_calls               120304                       # Number of function calls committed.
system.cpu.commit.op_class_0::No_OpClass        10140      0.03%      0.03% # Class of committed instruction
system.cpu.commit.op_class_0::IntAlu         23565672     72.85%     72.89% # Class of committed instruction
system.cpu.commit.op_class_0::IntMult           58948      0.18%     73.07% # Class of committed instruction
system.cpu.commit.op_class_0::IntDiv               28      0.00%     73.07% # Class of committed instruction
system.cpu.commit.op_class_0::FloatAdd          10014      0.03%     73.10% # Class of committed instruction
system.cpu.commit.op_class_0::FloatCmp              0      0.00%     73.10% # Class of committed instruction
system.cpu.commit.op_class_0::FloatCvt              0      0.00%     73.10% # Class of committed instruction
system.cpu.commit.op_class_0::FloatMult             0      0.00%     73.10% # Class of committed instruction
system.cpu.commit.op_class_0::FloatMultAcc            0      0.00%     73.10% # Class of committed instruction
system.cpu.commit.op_class_0::FloatDiv              0      0.00%     73.10% # Class of committed instruction
system.cpu.commit.op_class_0::FloatMisc             0      0.00%     73.10% # Class of committed instruction
system.cpu.commit.op_class_0::FloatSqrt             0      0.00%     73.10% # Class of committed instruction
system.cpu.commit.op_class_0::SimdAdd             374      0.00%     73.10% # Class of committed instruction
system.cpu.commit.op_class_0::SimdAddAcc            0      0.00%     73.10% # Class of committed instruction
system.cpu.commit.op_class_0::SimdAlu              94      0.00%     73.10% # Class of committed instruction
system.cpu.commit.op_class_0::SimdCmp               0      0.00%     73.10% # Class of committed instruction
system.cpu.commit.op_class_0::SimdCvt             140      0.00%     73.10% # Class of committed instruction
system.cpu.commit.op_class_0::SimdMisc            255      0.00%     73.10% # Class of committed instruction
system.cpu.commit.op_class_0::SimdMult              0      0.00%     73.10% # Class of committed instruction
system.cpu.commit.op_class_0::SimdMultAcc            0      0.00%     73.10% # Class of committed instruction
system.cpu.commit.op_class_0::SimdShift           186      0.00%     73.10% # Class of committed instruction
system.cpu.commit.op_class_0::SimdShiftAcc            0      0.00%     73.10% # Class of committed instruction
system.cpu.commit.op_class_0::SimdSqrt              0      0.00%     73.10% # Class of committed instruction
system.cpu.commit.op_class_0::SimdFloatAdd            0      0.00%     73.10% # Class of committed instruction
system.cpu.commit.op_class_0::SimdFloatAlu            0      0.00%     73.10% # Class of committed instruction
system.cpu.commit.op_class_0::SimdFloatCmp            0      0.00%     73.10% # Class of committed instruction
system.cpu.commit.op_class_0::SimdFloatCvt            0      0.00%     73.10% # Class of committed instruction
system.cpu.commit.op_class_0::SimdFloatDiv            0      0.00%     73.10% # Class of committed instruction
system.cpu.commit.op_class_0::SimdFloatMisc            0      0.00%     73.10% # Class of committed instruction
system.cpu.commit.op_class_0::SimdFloatMult            0      0.00%     73.10% # Class of committed instruction
system.cpu.commit.op_class_0::SimdFloatMultAcc            0      0.00%     73.10% # Class of committed instruction
system.cpu.commit.op_class_0::SimdFloatSqrt            0      0.00%     73.10% # Class of committed instruction
system.cpu.commit.op_class_0::SimdAes               0      0.00%     73.10% # Class of committed instruction
system.cpu.commit.op_class_0::SimdAesMix            0      0.00%     73.10% # Class of committed instruction
system.cpu.commit.op_class_0::SimdSha1Hash            0      0.00%     73.10% # Class of committed instruction
system.cpu.commit.op_class_0::SimdSha1Hash2            0      0.00%     73.10% # Class of committed instruction
system.cpu.commit.op_class_0::SimdSha256Hash            0      0.00%     73.10% # Class of committed instruction
system.cpu.commit.op_class_0::SimdSha256Hash2            0      0.00%     73.10% # Class of committed instruction
system.cpu.commit.op_class_0::SimdShaSigma2            0      0.00%     73.10% # Class of committed instruction
system.cpu.commit.op_class_0::SimdShaSigma3            0      0.00%     73.10% # Class of committed instruction
system.cpu.commit.op_class_0::MemRead         6179810     19.11%     92.21% # Class of committed instruction
system.cpu.commit.op_class_0::MemWrite        2439984      7.54%     99.75% # Class of committed instruction
system.cpu.commit.op_class_0::FloatMemRead        40086      0.12%     99.88% # Class of committed instruction
system.cpu.commit.op_class_0::FloatMemWrite        40425      0.12%    100.00% # Class of committed instruction
system.cpu.commit.op_class_0::IprAccess             0      0.00%    100.00% # Class of committed instruction
system.cpu.commit.op_class_0::InstPrefetch            0      0.00%    100.00% # Class of committed instruction
system.cpu.commit.op_class_0::total          32346156                       # Class of committed instruction
system.cpu.commit.bw_lim_events               5024174                       # number cycles where commit BW limit reached
system.cpu.rob.rob_reads                     55529683                       # The number of ROB reads
system.cpu.rob.rob_writes                    80536386                       # The number of ROB writes
system.cpu.timesIdled                             438                       # Number of times that the entire CPU went into an idle state and unscheduled itself
system.cpu.idleCycles                           39636                       # Total number of cycles that the CPU has spent unscheduled due to idling
system.cpu.committedInsts                    18836239                       # Number of Instructions Simulated
system.cpu.committedOps                      32346156                       # Number of Ops (including micro ops) Simulated
system.cpu.cpi                               1.110113                       # CPI: Cycles Per Instruction
system.cpu.cpi_total                         1.110113                       # CPI: Total CPI of All Threads
system.cpu.ipc                               0.900809                       # IPC: Instructions Per Cycle
system.cpu.ipc_total                         0.900809                       # IPC: Total IPC of All Threads
system.cpu.int_regfile_reads                 55785060                       # number of integer regfile reads
system.cpu.int_regfile_writes                29788202                       # number of integer regfile writes
system.cpu.fp_regfile_reads                     44106                       # number of floating regfile reads
system.cpu.fp_regfile_writes                    51653                       # number of floating regfile writes
system.cpu.cc_regfile_reads                  16910828                       # number of cc regfile reads
system.cpu.cc_regfile_writes                 11525118                       # number of cc regfile writes
system.cpu.misc_regfile_reads                17734719                       # number of misc regfile reads
system.cpu.dcache.tags.pwrStateResidencyTicks::UNDEFINED  10455179000                       # Cumulative time (in ticks) in various power states
system.cpu.dcache.tags.tagsinuse           502.182785                       # Cycle average of tags in use
system.cpu.dcache.tags.total_refs             8737670                       # Total number of references to valid blocks.
system.cpu.dcache.tags.sampled_refs              6570                       # Sample count of references to valid blocks.
system.cpu.dcache.tags.avg_refs           1329.934551                       # Average number of references to valid blocks.
system.cpu.dcache.tags.warmup_cycle            169500                       # Cycle when the warmup percentage was hit.
system.cpu.dcache.tags.occ_blocks::.cpu.data   502.182785                       # Average occupied blocks per requestor
system.cpu.dcache.tags.occ_percent::.cpu.data     0.980826                       # Average percentage of cache occupancy
system.cpu.dcache.tags.occ_percent::total     0.980826                       # Average percentage of cache occupancy
system.cpu.dcache.tags.occ_task_id_blocks::1024          512                       # Occupied blocks per task id
system.cpu.dcache.tags.age_task_id_blocks_1024::0           85                       # Occupied blocks per task id
system.cpu.dcache.tags.age_task_id_blocks_1024::1          425                       # Occupied blocks per task id
system.cpu.dcache.tags.age_task_id_blocks_1024::2            1                       # Occupied blocks per task id
system.cpu.dcache.tags.age_task_id_blocks_1024::4            1                       # Occupied blocks per task id
system.cpu.dcache.tags.occ_task_id_percent::1024            1                       # Percentage of cache occupancy per task id
system.cpu.dcache.tags.tag_accesses          69921834                       # Number of tag accesses
system.cpu.dcache.tags.data_accesses         69921834                       # Number of data accesses
system.cpu.dcache.pwrStateResidencyTicks::UNDEFINED  10455179000                       # Cumulative time (in ticks) in various power states
system.cpu.dcache.ReadReq_hits::.cpu.data      6253991                       # number of ReadReq hits
system.cpu.dcache.ReadReq_hits::total         6253991                       # number of ReadReq hits
system.cpu.dcache.WriteReq_hits::.cpu.data      2477109                       # number of WriteReq hits
system.cpu.dcache.WriteReq_hits::total        2477109                       # number of WriteReq hits
system.cpu.dcache.demand_hits::.cpu.data      8731100                       # number of demand (read+write) hits
system.cpu.dcache.demand_hits::total          8731100                       # number of demand (read+write) hits
system.cpu.dcache.overall_hits::.cpu.data      8731100                       # number of overall hits
system.cpu.dcache.overall_hits::total         8731100                       # number of overall hits
system.cpu.dcache.ReadReq_misses::.cpu.data         5008                       # number of ReadReq misses
system.cpu.dcache.ReadReq_misses::total          5008                       # number of ReadReq misses
system.cpu.dcache.WriteReq_misses::.cpu.data         3300                       # number of WriteReq misses
system.cpu.dcache.WriteReq_misses::total         3300                       # number of WriteReq misses
system.cpu.dcache.demand_misses::.cpu.data         8308                       # number of demand (read+write) misses
system.cpu.dcache.demand_misses::total           8308                       # number of demand (read+write) misses
system.cpu.dcache.overall_misses::.cpu.data         8308                       # number of overall misses
system.cpu.dcache.overall_misses::total          8308                       # number of overall misses
system.cpu.dcache.ReadReq_miss_latency::.cpu.data     95034000                       # number of ReadReq miss cycles
system.cpu.dcache.ReadReq_miss_latency::total     95034000                       # number of ReadReq miss cycles
system.cpu.dcache.WriteReq_miss_latency::.cpu.data    149458000                       # number of WriteReq miss cycles
system.cpu.dcache.WriteReq_miss_latency::total    149458000                       # number of WriteReq miss cycles
system.cpu.dcache.demand_miss_latency::.cpu.data    244492000                       # number of demand (read+write) miss cycles
system.cpu.dcache.demand_miss_latency::total    244492000                       # number of demand (read+write) miss cycles
system.cpu.dcache.overall_miss_latency::.cpu.data    244492000                       # number of overall miss cycles
system.cpu.dcache.overall_miss_latency::total    244492000                       # number of overall miss cycles
system.cpu.dcache.ReadReq_accesses::.cpu.data      6258999                       # number of ReadReq accesses(hits+misses)
system.cpu.dcache.ReadReq_accesses::total      6258999                       # number of ReadReq accesses(hits+misses)
system.cpu.dcache.WriteReq_accesses::.cpu.data      2480409                       # number of WriteReq accesses(hits+misses)
system.cpu.dcache.WriteReq_accesses::total      2480409                       # number of WriteReq accesses(hits+misses)
system.cpu.dcache.demand_accesses::.cpu.data      8739408                       # number of demand (read+write) accesses
system.cpu.dcache.demand_accesses::total      8739408                       # number of demand (read+write) accesses
system.cpu.dcache.overall_accesses::.cpu.data      8739408                       # number of overall (read+write) accesses
system.cpu.dcache.overall_accesses::total      8739408                       # number of overall (read+write) accesses
system.cpu.dcache.ReadReq_miss_rate::.cpu.data     0.000800                       # miss rate for ReadReq accesses
system.cpu.dcache.ReadReq_miss_rate::total     0.000800                       # miss rate for ReadReq accesses
system.cpu.dcache.WriteReq_miss_rate::.cpu.data     0.001330                       # miss rate for WriteReq accesses
system.cpu.dcache.WriteReq_miss_rate::total     0.001330                       # miss rate for WriteReq accesses
system.cpu.dcache.demand_miss_rate::.cpu.data     0.000951                       # miss rate for demand accesses
system.cpu.dcache.demand_miss_rate::total     0.000951                       # miss rate for demand accesses
[...]
system.l3bus.snoop_fanout::min_value                0                       # Request fanout histogram
system.l3bus.snoop_fanout::max_value                0                       # Request fanout histogram
system.l3bus.snoop_fanout::total                 2538                       # Request fanout histogram
system.l3bus.reqLayer0.occupancy              1270000                       # Layer occupancy (ticks)
system.l3bus.reqLayer0.utilization                0.0                       # Layer utilization (%)
system.l3bus.respLayer0.occupancy             6345000                       # Layer occupancy (ticks)
system.l3bus.respLayer0.utilization               0.1                       # Layer utilization (%)
system.l3cache.tags.pwrStateResidencyTicks::UNDEFINED  10455179000                       # Cumulative time (in ticks) in various power states
system.l3cache.tags.tagsinuse             1795.178605                       # Cycle average of tags in use
system.l3cache.tags.total_refs                   2538                       # Total number of references to valid blocks.
system.l3cache.tags.sampled_refs                 2538                       # Sample count of references to valid blocks.
system.l3cache.tags.avg_refs                        1                       # Average number of references to valid blocks.
system.l3cache.tags.warmup_cycle                76000                       # Cycle when the warmup percentage was hit.
system.l3cache.tags.occ_blocks::.cpu.inst   753.969376                       # Average occupied blocks per requestor
system.l3cache.tags.occ_blocks::.cpu.data  1041.209228                       # Average occupied blocks per requestor
system.l3cache.tags.occ_percent::.cpu.inst     0.023009                       # Average percentage of cache occupancy
system.l3cache.tags.occ_percent::.cpu.data     0.031775                       # Average percentage of cache occupancy
system.l3cache.tags.occ_percent::total       0.054785                       # Average percentage of cache occupancy
system.l3cache.tags.occ_task_id_blocks::1024         2538                       # Occupied blocks per task id
system.l3cache.tags.age_task_id_blocks_1024::0           65                       # Occupied blocks per task id
system.l3cache.tags.age_task_id_blocks_1024::2          316                       # Occupied blocks per task id
system.l3cache.tags.age_task_id_blocks_1024::3         1027                       # Occupied blocks per task id
system.l3cache.tags.age_task_id_blocks_1024::4         1130                       # Occupied blocks per task id
system.l3cache.tags.occ_task_id_percent::1024     0.077454                       # Percentage of cache occupancy per task id
system.l3cache.tags.tag_accesses                43146                       # Number of tag accesses
system.l3cache.tags.data_accesses               43146                       # Number of data accesses
system.l3cache.pwrStateResidencyTicks::UNDEFINED  10455179000                       # Cumulative time (in ticks) in various power states
system.l3cache.ReadExReq_misses::.cpu.data         1395                       # number of ReadExReq misses
system.l3cache.ReadExReq_misses::total           1395                       # number of ReadExReq misses
system.l3cache.ReadSharedReq_misses::.cpu.inst          858                       # number of ReadSharedReq misses
system.l3cache.ReadSharedReq_misses::.cpu.data          285                       # number of ReadSharedReq misses
system.l3cache.ReadSharedReq_misses::total         1143                       # number of ReadSharedReq misses
system.l3cache.demand_misses::.cpu.inst           858                       # number of demand (read+write) misses
system.l3cache.demand_misses::.cpu.data          1680                       # number of demand (read+write) misses
system.l3cache.demand_misses::total              2538                       # number of demand (read+write) misses
system.l3cache.overall_misses::.cpu.inst          858                       # number of overall misses
system.l3cache.overall_misses::.cpu.data         1680                       # number of overall misses
system.l3cache.overall_misses::total             2538                       # number of overall misses
system.l3cache.ReadExReq_miss_latency::.cpu.data    106619000                       # number of ReadExReq miss cycles
system.l3cache.ReadExReq_miss_latency::total    106619000                       # number of ReadExReq miss cycles
system.l3cache.ReadSharedReq_miss_latency::.cpu.inst     79703000                       # number of ReadSharedReq miss cycles
system.l3cache.ReadSharedReq_miss_latency::.cpu.data     24255000                       # number of ReadSharedReq miss cycles
system.l3cache.ReadSharedReq_miss_latency::total    103958000                       # number of ReadSharedReq miss cycles
system.l3cache.demand_miss_latency::.cpu.inst     79703000                       # number of demand (read+write) miss cycles
system.l3cache.demand_miss_latency::.cpu.data    130874000                       # number of demand (read+write) miss cycles
system.l3cache.demand_miss_latency::total    210577000                       # number of demand (read+write) miss cycles
system.l3cache.overall_miss_latency::.cpu.inst     79703000                       # number of overall miss cycles
system.l3cache.overall_miss_latency::.cpu.data    130874000                       # number of overall miss cycles
system.l3cache.overall_miss_latency::total    210577000                       # number of overall miss cycles
system.l3cache.ReadExReq_accesses::.cpu.data         1395                       # number of ReadExReq accesses(hits+misses)
system.l3cache.ReadExReq_accesses::total         1395                       # number of ReadExReq accesses(hits+misses)
system.l3cache.ReadSharedReq_accesses::.cpu.inst          858                       # number of ReadSharedReq accesses(hits+misses)
system.l3cache.ReadSharedReq_accesses::.cpu.data          285                       # number of ReadSharedReq accesses(hits+misses)
system.l3cache.ReadSharedReq_accesses::total         1143                       # number of ReadSharedReq accesses(hits+misses)
system.l3cache.demand_accesses::.cpu.inst          858                       # number of demand (read+write) accesses
system.l3cache.demand_accesses::.cpu.data         1680                       # number of demand (read+write) accesses
system.l3cache.demand_accesses::total            2538                       # number of demand (read+write) accesses
system.l3cache.overall_accesses::.cpu.inst          858                       # number of overall (read+write) accesses
system.l3cache.overall_accesses::.cpu.data         1680                       # number of overall (read+write) accesses
system.l3cache.overall_accesses::total           2538                       # number of overall (read+write) accesses
system.l3cache.ReadExReq_miss_rate::.cpu.data            1                       # miss rate for ReadExReq accesses
system.l3cache.ReadExReq_miss_rate::total            1                       # miss rate for ReadExReq accesses
system.l3cache.ReadSharedReq_miss_rate::.cpu.inst            1                       # miss rate for ReadSharedReq accesses
system.l3cache.ReadSharedReq_miss_rate::.cpu.data            1                       # miss rate for ReadSharedReq accesses
system.l3cache.ReadSharedReq_miss_rate::total            1                       # miss rate for ReadSharedReq accesses
system.l3cache.demand_miss_rate::.cpu.inst            1                       # miss rate for demand accesses
system.l3cache.demand_miss_rate::.cpu.data            1                       # miss rate for demand accesses
system.l3cache.demand_miss_rate::total              1                       # miss rate for demand accesses
system.l3cache.overall_miss_rate::.cpu.inst            1                       # miss rate for overall accesses
system.l3cache.overall_miss_rate::.cpu.data            1                       # miss rate for overall accesses
system.l3cache.overall_miss_rate::total             1                       # miss rate for overall accesses
system.l3cache.ReadExReq_avg_miss_latency::.cpu.data 76429.390681                       # average ReadExReq miss latency
system.l3cache.ReadExReq_avg_miss_latency::total 76429.390681                       # average ReadExReq miss latency
system.l3cache.ReadSharedReq_avg_miss_latency::.cpu.inst 92893.939394                       # average ReadSharedReq miss latency
system.l3cache.ReadSharedReq_avg_miss_latency::.cpu.data 85105.263158                       # average ReadSharedReq miss latency
system.l3cache.ReadSharedReq_avg_miss_latency::total 90951.881015                       # average ReadSharedReq miss latency
system.l3cache.demand_avg_miss_latency::.cpu.inst 92893.939394                       # average overall miss latency
system.l3cache.demand_avg_miss_latency::.cpu.data 77901.190476                       # average overall miss latency
system.l3cache.demand_avg_miss_latency::total 82969.661151                       # average overall miss latency
system.l3cache.overall_avg_miss_latency::.cpu.inst 92893.939394                       # average overall miss latency
system.l3cache.overall_avg_miss_latency::.cpu.data 77901.190476                       # average overall miss latency
system.l3cache.overall_avg_miss_latency::total 82969.661151                       # average overall miss latency
system.l3cache.blocked_cycles::no_mshrs             0                       # number of cycles access was blocked
system.l3cache.blocked_cycles::no_targets            0                       # number of cycles access was blocked
system.l3cache.blocked::no_mshrs                    0                       # number of cycles access was blocked
system.l3cache.blocked::no_targets                  0                       # number of cycles access was blocked
system.l3cache.avg_blocked_cycles::no_mshrs          nan                       # average number of cycles each access was blocked
system.l3cache.avg_blocked_cycles::no_targets          nan                       # average number of cycles each access was blocked
system.l3cache.ReadExReq_mshr_misses::.cpu.data         1395                       # number of ReadExReq MSHR misses
system.l3cache.ReadExReq_mshr_misses::total         1395                       # number of ReadExReq MSHR misses
system.l3cache.ReadSharedReq_mshr_misses::.cpu.inst          858                       # number of ReadSharedReq MSHR misses
system.l3cache.ReadSharedReq_mshr_misses::.cpu.data          285                       # number of ReadSharedReq MSHR misses
system.l3cache.ReadSharedReq_mshr_misses::total         1143                       # number of ReadSharedReq MSHR misses
system.l3cache.demand_mshr_misses::.cpu.inst          858                       # number of demand (read+write) MSHR misses
system.l3cache.demand_mshr_misses::.cpu.data         1680                       # number of demand (read+write) MSHR misses
system.l3cache.demand_mshr_misses::total         2538                       # number of demand (read+write) MSHR misses
system.l3cache.overall_mshr_misses::.cpu.inst          858                       # number of overall MSHR misses
system.l3cache.overall_mshr_misses::.cpu.data         1680                       # number of overall MSHR misses
system.l3cache.overall_mshr_misses::total         2538                       # number of overall MSHR misses
system.l3cache.ReadExReq_mshr_miss_latency::.cpu.data    103829000                       # number of ReadExReq MSHR miss cycles
system.l3cache.ReadExReq_mshr_miss_latency::total    103829000                       # number of ReadExReq MSHR miss cycles
system.l3cache.ReadSharedReq_mshr_miss_latency::.cpu.inst     77987000                       # number of ReadSharedReq MSHR miss cycles
system.l3cache.ReadSharedReq_mshr_miss_latency::.cpu.data     23685000                       # number of ReadSharedReq MSHR miss cycles
system.l3cache.ReadSharedReq_mshr_miss_latency::total    101672000                       # number of ReadSharedReq MSHR miss cycles
system.l3cache.demand_mshr_miss_latency::.cpu.inst     77987000                       # number of demand (read+write) MSHR miss cycles
system.l3cache.demand_mshr_miss_latency::.cpu.data    127514000                       # number of demand (read+write) MSHR miss cycles
system.l3cache.demand_mshr_miss_latency::total    205501000                       # number of demand (read+write) MSHR miss cycles
system.l3cache.overall_mshr_miss_latency::.cpu.inst     77987000                       # number of overall MSHR miss cycles
system.l3cache.overall_mshr_miss_latency::.cpu.data    127514000                       # number of overall MSHR miss cycles
system.l3cache.overall_mshr_miss_latency::total    205501000                       # number of overall MSHR miss cycles
system.l3cache.ReadExReq_mshr_miss_rate::.cpu.data            1                       # mshr miss rate for ReadExReq accesses
system.l3cache.ReadExReq_mshr_miss_rate::total            1                       # mshr miss rate for ReadExReq accesses
system.l3cache.ReadSharedReq_mshr_miss_rate::.cpu.inst            1                       # mshr miss rate for ReadSharedReq accesses
system.l3cache.ReadSharedReq_mshr_miss_rate::.cpu.data            1                       # mshr miss rate for ReadSharedReq accesses
system.l3cache.ReadSharedReq_mshr_miss_rate::total            1                       # mshr miss rate for ReadSharedReq accesses
system.l3cache.demand_mshr_miss_rate::.cpu.inst            1                       # mshr miss rate for demand accesses
system.l3cache.demand_mshr_miss_rate::.cpu.data            1                       # mshr miss rate for demand accesses
system.l3cache.demand_mshr_miss_rate::total            1                       # mshr miss rate for demand accesses
system.l3cache.overall_mshr_miss_rate::.cpu.inst            1                       # mshr miss rate for overall accesses
system.l3cache.overall_mshr_miss_rate::.cpu.data            1                       # mshr miss rate for overall accesses
system.l3cache.overall_mshr_miss_rate::total            1                       # mshr miss rate for overall accesses
system.l3cache.ReadExReq_avg_mshr_miss_latency::.cpu.data 74429.390681                       # average ReadExReq mshr miss latency
system.l3cache.ReadExReq_avg_mshr_miss_latency::total 74429.390681                       # average ReadExReq mshr miss latency
system.l3cache.ReadSharedReq_avg_mshr_miss_latency::.cpu.inst 90893.939394                       # average ReadSharedReq mshr miss latency
system.l3cache.ReadSharedReq_avg_mshr_miss_latency::.cpu.data 83105.263158                       # average ReadSharedReq mshr miss latency
system.l3cache.ReadSharedReq_avg_mshr_miss_latency::total 88951.881015                       # average ReadSharedReq mshr miss latency
system.l3cache.demand_avg_mshr_miss_latency::.cpu.inst 90893.939394                       # average overall mshr miss latency
system.l3cache.demand_avg_mshr_miss_latency::.cpu.data 75901.190476                       # average overall mshr miss latency
system.l3cache.demand_avg_mshr_miss_latency::total 80969.661151                       # average overall mshr miss latency
system.l3cache.overall_avg_mshr_miss_latency::.cpu.inst 90893.939394                       # average overall mshr miss latency
system.l3cache.overall_avg_mshr_miss_latency::.cpu.data 75901.190476                       # average overall mshr miss latency
system.l3cache.overall_avg_mshr_miss_latency::total 80969.661151                       # average overall mshr miss latency
system.l3cache.replacements                         0                       # number of replacements
system.membus.snoop_filter.tot_requests          2538                       # Total number of requests made to the snoop filter.
system.membus.snoop_filter.hit_single_requests            0                       # Number of requests hitting in the snoop filter with a single holder of the requested data.
system.membus.snoop_filter.hit_multi_requests            0                       # Number of requests hitting in the snoop filter with multiple (>1) holders of the requested data.
system.membus.snoop_filter.tot_snoops               0                       # Total number of snoops made to the snoop filter.
system.membus.snoop_filter.hit_single_snoops            0                       # Number of snoops hitting in the snoop filter with a single holder of the requested data.
system.membus.snoop_filter.hit_multi_snoops            0                       # Number of snoops hitting in the snoop filter with multiple (>1) holders of the requested data.
system.membus.pwrStateResidencyTicks::UNDEFINED  10455179000                       # Cumulative time (in ticks) in various power states
system.membus.trans_dist::ReadResp               1143                       # Transaction distribution
system.membus.trans_dist::ReadExReq              1395                       # Transaction distribution
system.membus.trans_dist::ReadExResp             1395                       # Transaction distribution
system.membus.trans_dist::ReadSharedReq          1143                       # Transaction distribution
system.membus.pkt_count_system.l3cache.mem_side::system.mem_ctrl.port         5076                       # Packet count per connected master and slave (bytes)
system.membus.pkt_count_system.l3cache.mem_side::total         5076                       # Packet count per connected master and slave (bytes)
system.membus.pkt_count::total                   5076                       # Packet count per connected master and slave (bytes)
system.membus.pkt_size_system.l3cache.mem_side::system.mem_ctrl.port       162432                       # Cumulative packet size per connected master and slave (bytes)
system.membus.pkt_size_system.l3cache.mem_side::total       162432                       # Cumulative packet size per connected master and slave (bytes)
system.membus.pkt_size::total                  162432                       # Cumulative packet size per connected master and slave (bytes)
system.membus.snoops                                0                       # Total snoops (count)
system.membus.snoopTraffic                          0                       # Total snoop traffic (bytes)
system.membus.snoop_fanout::samples              2538                       # Request fanout histogram
system.membus.snoop_fanout::mean                    0                       # Request fanout histogram
system.membus.snoop_fanout::stdev                   0                       # Request fanout histogram
system.membus.snoop_fanout::underflows              0      0.00%      0.00% # Request fanout histogram
system.membus.snoop_fanout::0                    2538    100.00%    100.00% # Request fanout histogram
system.membus.snoop_fanout::1                       0      0.00%    100.00% # Request fanout histogram
system.membus.snoop_fanout::overflows               0      0.00%    100.00% # Request fanout histogram
system.membus.snoop_fanout::min_value               0                       # Request fanout histogram
system.membus.snoop_fanout::max_value               0                       # Request fanout histogram
system.membus.snoop_fanout::total                2538                       # Request fanout histogram
system.membus.reqLayer0.occupancy             1269000                       # Layer occupancy (ticks)
system.membus.reqLayer0.utilization               0.0                       # Layer utilization (%)
system.membus.respLayer0.occupancy            6806500                       # Layer occupancy (ticks)
system.membus.respLayer0.utilization              0.1                       # Layer utilization (%)

---------- End Simulation Statistics   ----------