
---------- Begin Simulation Statistics ----------
sim_seconds                                  0.000046                       # Number of seconds simulated
sim_ticks                                    45826000                       # Number of ticks simulated
final_tick                                   45826000                       # Number of ticks from beginning of simulation (restored from checkpoints and never reset)
sim_freq                                 1000000000000                       # Frequency of simulated ticks
host_inst_rate                                  39263                       # Simulator instruction rate (inst/s)
host_op_rate                                    79206                       # Simulator op (including micro ops) rate (op/s)
host_tick_rate                              233144799                       # Simulator tick rate (ticks/s)
host_mem_usage                                 655144                       # Number of bytes of host memory used
host_seconds                                     0.20                       # Real time elapsed on the host
sim_insts                                        7717                       # Number of instructions simulated
sim_ops                                         15568                       # Number of ops (including micro ops) simulated
system.clk_domain.voltage_domain.voltage            1                       # Voltage in Volts
system.clk_domain.clock                           500                       # Clock period in ticks
system.mem_ctrl.pwrStateResidencyTicks::UNDEFINED     45826000                       # Cumulative time (in ticks) in various power states
system.mem_ctrl.bytes_read::.cpu.inst           32512                       # Number of bytes read from this memory
system.mem_ctrl.bytes_read::.cpu.data           16192                       # Number of bytes read from this memory
system.mem_ctrl.bytes_read::total               48704                       # Number of bytes read from this memory
system.mem_ctrl.bytes_inst_read::.cpu.inst        32512                       # Number of instructions bytes read from this memory
system.mem_ctrl.bytes_inst_read::total          32512                       # Number of instructions bytes read from this memory
system.mem_ctrl.num_reads::.cpu.inst              508                       # Number of read requests responded to by this memory
system.mem_ctrl.num_reads::.cpu.data              253                       # Number of read requests responded to by this memory
system.mem_ctrl.num_reads::total                  761                       # Number of read requests responded to by this memory
system.mem_ctrl.bw_read::.cpu.inst          709466242                       # Total read bandwidth from this memory (bytes/s)
system.mem_ctrl.bw_read::.cpu.data          353336534                       # Total read bandwidth from this memory (bytes/s)
system.mem_ctrl.bw_read::total             1062802776                       # Total read bandwidth from this memory (bytes/s)
system.mem_ctrl.bw_inst_read::.cpu.inst     709466242                       # Instruction read bandwidth from this memory (bytes/s)
system.mem_ctrl.bw_inst_read::total         709466242                       # Instruction read bandwidth from this memory (bytes/s)
system.mem_ctrl.bw_total::.cpu.inst         709466242                       # Total bandwidth to/from this memory (bytes/s)
system.mem_ctrl.bw_total::.cpu.data         353336534                       # Total bandwidth to/from this memory (bytes/s)
system.mem_ctrl.bw_total::total            1062802776                       # Total bandwidth to/from this memory (bytes/s)
system.mem_ctrl.avgPriority_.cpu.inst::samples       508.00                       # Average QoS priority value for accepted requests
system.mem_ctrl.avgPriority_.cpu.data::samples       253.00                       # Average QoS priority value for accepted requests
system.mem_ctrl.priorityMinLatency       0.000000018750                       # per QoS priority minimum request to response latency (s)
system.mem_ctrl.priorityMaxLatency       0.000000679500                       # per QoS priority maximum request to response latency (s)
system.mem_ctrl.numReadWriteTurnArounds             0                       # Number of turnarounds from READ to WRITE
system.mem_ctrl.numWriteReadTurnArounds             0                       # Number of turnarounds from WRITE to READ
system.mem_ctrl.numStayReadState                 1504                       # Number of times bus staying in READ state
system.mem_ctrl.numStayWriteState                   0                       # Number of times bus staying in WRITE state
system.mem_ctrl.readReqs                          761                       # Number of read requests accepted
system.mem_ctrl.writeReqs                           0                       # Number of write requests accepted
system.mem_ctrl.readBursts                        761                       # Number of DRAM read bursts, including those serviced by the write queue
system.mem_ctrl.writeBursts                         0                       # Number of DRAM write bursts, including those merged in the write queue
system.mem_ctrl.bytesReadDRAM                   48704                       # Total number of bytes read from DRAM
system.mem_ctrl.bytesReadWrQ                        0                       # Total number of bytes read from write queue
system.mem_ctrl.bytesWritten                        0                       # Total number of bytes written to DRAM
system.mem_ctrl.bytesReadSys                    48704                       # Total read bytes from the system interface side
system.mem_ctrl.bytesWrittenSys                     0                       # Total written bytes from the system interface side
system.mem_ctrl.servicedByWrQ                       0                       # Number of DRAM read bursts serviced by the write queue
system.mem_ctrl.mergedWrBursts                      0                       # Number of DRAM write bursts merged with an existing one
system.mem_ctrl.neitherReadNorWriteReqs             0                       # Number of requests that are neither read nor write
system.mem_ctrl.perBankRdBursts::0                100                       # Per bank write bursts
system.mem_ctrl.perBankRdBursts::1                 25                       # Per bank write bursts
system.mem_ctrl.perBankRdBursts::2                 31                       # Per bank write bursts
system.mem_ctrl.perBankRdBursts::3                 15                       # Per bank write bursts
system.mem_ctrl.perBankRdBursts::4                 22                       # Per bank write bursts
system.mem_ctrl.perBankRdBursts::5                  9                       # Per bank write bursts
system.mem_ctrl.perBankRdBursts::6                 69                       # Per bank write bursts
system.mem_ctrl.perBankRdBursts::7                 36                       # Per bank write bursts
system.mem_ctrl.perBankRdBursts::8                  4                       # Per bank write bursts
system.mem_ctrl.perBankRdBursts::9                 30                       # Per bank write bursts
system.mem_ctrl.perBankRdBursts::10               113                       # Per bank write bursts
system.mem_ctrl.perBankRdBursts::11                60                       # Per bank write bursts
system.mem_ctrl.perBankRdBursts::12                43                       # Per bank write bursts
system.mem_ctrl.perBankRdBursts::13                65                       # Per bank write bursts
system.mem_ctrl.perBankRdBursts::14                81                       # Per bank write bursts
system.mem_ctrl.perBankRdBursts::15                58                       # Per bank write bursts
system.mem_ctrl.perBankWrBursts::0                  0                       # Per bank write bursts
system.mem_ctrl.perBankWrBursts::1                  0                       # Per bank write bursts
system.mem_ctrl.perBankWrBursts::2                  0                       # Per bank write bursts
system.mem_ctrl.perBankWrBursts::3                  0                       # Per bank write bursts
system.mem_ctrl.perBankWrBursts::4                  0                       # Per bank write bursts
system.mem_ctrl.perBankWrBursts::5                  0                       # Per bank write bursts
system.mem_ctrl.perBankWrBursts::6                  0                       # Per bank write bursts
system.mem_ctrl.perBankWrBursts::7                  0                       # Per bank write bursts
system.mem_ctrl.perBankWrBursts::8                  0                       # Per bank write bursts
system.mem_ctrl.perBankWrBursts::9                  0                       # Per bank write bursts
system.mem_ctrl.perBankWrBursts::10                 0                       # Per bank write bursts
system.mem_ctrl.perBankWrBursts::11                 0                       # Per bank write bursts
system.mem_ctrl.perBankWrBursts::12                 0                       # Per bank write bursts
system.mem_ctrl.perBankWrBursts::13                 0                       # Per bank write bursts
system.mem_ctrl.perBankWrBursts::14                 0                       # Per bank write bursts
system.mem_ctrl.perBankWrBursts::15                 0                       # Per bank write bursts
system.mem_ctrl.numRdRetry                          0                       # Number of times read queue was full causing retry
system.mem_ctrl.numWrRetry                          0                       # Number of times write queue was full causing retry
system.mem_ctrl.totGap                       45734000                       # Total gap between requests
system.mem_ctrl.readPktSize::0                      0                       # Read request sizes (log2)
system.mem_ctrl.readPktSize::1                      0                       # Read request sizes (log2)
system.mem_ctrl.readPktSize::2                      0                       # Read request sizes (log2)
system.mem_ctrl.readPktSize::3                      0                       # Read request sizes (log2)
system.mem_ctrl.readPktSize::4                      0                       # Read request sizes (log2)
system.mem_ctrl.readPktSize::5                      0                       # Read request sizes (log2)
system.mem_ctrl.readPktSize::6                    761                       # Read request sizes (log2)
system.mem_ctrl.writePktSize::0                     0                       # Write request sizes (log2)
system.mem_ctrl.writePktSize::1                     0                       # Write request sizes (log2)
system.mem_ctrl.writePktSize::2                     0                       # Write request sizes (log2)
system.mem_ctrl.writePktSize::3                     0                       # Write request sizes (log2)
system.mem_ctrl.writePktSize::4                     0                       # Write request sizes (log2)
system.mem_ctrl.writePktSize::5                     0                       # Write request sizes (log2)
system.mem_ctrl.writePktSize::6                     0                       # Write request sizes (log2)
system.mem_ctrl.rdQLenPdf::0                      491                       # What read queue length does an incoming req see
system.mem_ctrl.rdQLenPdf::1                      208                       # What read queue length does an incoming req see
system.mem_ctrl.rdQLenPdf::2                       53                       # What read queue length does an incoming req see
system.mem_ctrl.rdQLenPdf::3                        8                       # What read queue length does an incoming req see
system.mem_ctrl.rdQLenPdf::4                        1                       # What read queue length does an incoming req see
system.mem_ctrl.rdQLenPdf::5                        0                       # What read queue length does an incoming req see
system.mem_ctrl.rdQLenPdf::6                        0                       # What read queue length does an incoming req see
system.mem_ctrl.rdQLenPdf::7                        0                       # What read queue length does an incoming req see
system.mem_ctrl.rdQLenPdf::8                        0                       # What read queue length does an incoming req see
system.mem_ctrl.rdQLenPdf::9                        0                       # What read queue length does an incoming req see
system.mem_ctrl.rdQLenPdf::10                       0                       # What read queue length does an incoming req see
system.mem_ctrl.rdQLenPdf::11                       0                       # What read queue length does an incoming req see
system.mem_ctrl.rdQLenPdf::12                       0                       # What read queue length does an incoming req see
system.mem_ctrl.rdQLenPdf::13                       0                       # What read queue length does an incoming req see
system.mem_ctrl.rdQLenPdf::14                       0                       # What read queue length does an incoming req see
system.mem_ctrl.rdQLenPdf::15                       0                       # What read queue length does an incoming req see
system.mem_ctrl.rdQLenPdf::16                       0                       # What read queue length does an incoming req see
system.mem_ctrl.rdQLenPdf::17                       0                       # What read queue length does an incoming req see
system.mem_ctrl.rdQLenPdf::18                       0                       # What read queue length does an incoming req see
system.mem_ctrl.rdQLenPdf::19                       0                       # What read queue length does an incoming req see
system.mem_ctrl.rdQLenPdf::20                       0                       # What read queue length does an incoming req see
system.mem_ctrl.rdQLenPdf::21                       0                       # What read queue length does an incoming req see
system.mem_ctrl.rdQLenPdf::22                       0                       # What read queue length does an incoming req see
system.mem_ctrl.rdQLenPdf::23                       0                       # What read queue length does an incoming req see
system.mem_ctrl.rdQLenPdf::24                       0                       # What read queue length does an incoming req see
system.mem_ctrl.rdQLenPdf::25                       0                       # What read queue length does an incoming req see
system.mem_ctrl.rdQLenPdf::26                       0                       # What read queue length does an incoming req see
system.mem_ctrl.rdQLenPdf::27                       0                       # What read queue length does an incoming req see
system.mem_ctrl.rdQLenPdf::28                       0                       # What read queue length does an incoming req see
system.mem_ctrl.rdQLenPdf::29                       0                       # What read queue length does an incoming req see
system.mem_ctrl.rdQLenPdf::30                       0                       # What read queue length does an incoming req see
system.mem_ctrl.rdQLenPdf::31                       0                       # What read queue length does an incoming req see
system.mem_ctrl.wrQLenPdf::0                        0                       # What write queue length does an incoming req see
system.mem_ctrl.wrQLenPdf::1                        0                       # What write queue length does an incoming req see
system.mem_ctrl.wrQLenPdf::2                        0                       # What write queue length does an incoming req see
system.mem_ctrl.wrQLenPdf::3                        0                       # What write queue length does an incoming req see
system.mem_ctrl.wrQLenPdf::4                        0                       # What write queue length does an incoming req see
system.mem_ctrl.wrQLenPdf::5                        0                       # What write queue length does an incoming req see
system.mem_ctrl.wrQLenPdf::6                        0                       # What write queue length does an incoming req see
system.mem_ctrl.wrQLenPdf::7                        0                       # What write queue length does an incoming req see
system.mem_ctrl.wrQLenPdf::8                        0                       # What write queue length does an incoming req see
system.mem_ctrl.wrQLenPdf::9                        0                       # What write queue length does an incoming req see
system.mem_ctrl.wrQLenPdf::10                       0                       # What write queue length does an incoming req see
system.mem_ctrl.wrQLenPdf::11                       0                       # What write queue length does an incoming req see
system.mem_ctrl.wrQLenPdf::12                       0                       # What write queue length does an incoming req see
system.mem_ctrl.wrQLenPdf::13                       0                       # What write queue length does an incoming req see
system.mem_ctrl.wrQLenPdf::14                       0                       # What write queue length does an incoming req see
system.mem_ctrl.wrQLenPdf::15                       0                       # What write queue length does an incoming req see
system.mem_ctrl.wrQLenPdf::16                       0                       # What write queue length does an incoming req see
system.mem_ctrl.wrQLenPdf::17                       0                       # What write queue length does an incoming req see
system.mem_ctrl.wrQLenPdf::18                       0                       # What write queue length does an incoming req see
system.mem_ctrl.wrQLenPdf::19                       0                       # What write queue length does an incoming req see
system.mem_ctrl.wrQLenPdf::20                       0                       # What write queue length does an incoming req see
system.mem_ctrl.wrQLenPdf::21                       0                       # What write queue length does an incoming req see
system.mem_ctrl.wrQLenPdf::22                       0                       # What write queue length does an incoming req see
system.mem_ctrl.wrQLenPdf::23                       0                       # What write queue length does an incoming req see
system.mem_ctrl.wrQLenPdf::24                       0                       # What write queue length does an incoming req see
system.mem_ctrl.wrQLenPdf::25                       0                       # What write queue length does an incoming req see
system.mem_ctrl.wrQLenPdf::26                       0                       # What write queue length does an incoming req see
system.mem_ctrl.wrQLenPdf::27                       0                       # What write queue length does an incoming req see
system.mem_ctrl.wrQLenPdf::28                       0                       # What write queue length does an incoming req see
system.mem_ctrl.wrQLenPdf::29                       0                       # What write queue length does an incoming req see
system.mem_ctrl.wrQLenPdf::30                       0                       # What write queue length does an incoming req see
system.mem_ctrl.wrQLenPdf::31                       0                       # What write queue length does an incoming req see
system.mem_ctrl.wrQLenPdf::32                       0                       # What write queue length does an incoming req see
system.mem_ctrl.wrQLenPdf::33                       0                       # What write queue length does an incoming req see
system.mem_ctrl.wrQLenPdf::34                       0                       # What write queue length does an incoming req see
system.mem_ctrl.wrQLenPdf::35                       0                       # What write queue length does an incoming req see
system.mem_ctrl.wrQLenPdf::36                       0                       # What write queue length does an incoming req see
system.mem_ctrl.wrQLenPdf::37                       0                       # What write queue length does an incoming req see
system.mem_ctrl.wrQLenPdf::38                       0                       # What write queue length does an incoming req see
system.mem_ctrl.wrQLenPdf::39                       0                       # What write queue length does an incoming req see
system.mem_ctrl.wrQLenPdf::40                       0                       # What write queue length does an incoming req see
system.mem_ctrl.wrQLenPdf::41                       0                       # What write queue length does an incoming req see
system.mem_ctrl.wrQLenPdf::42                       0                       # What write queue length does an incoming req see
system.mem_ctrl.wrQLenPdf::43                       0                       # What write queue length does an incoming req see
system.mem_ctrl.wrQLenPdf::44                       0                       # What write queue length does an incoming req see
system.mem_ctrl.wrQLenPdf::45                       0                       # What write queue length does an incoming req see
system.mem_ctrl.wrQLenPdf::46                       0                       # What write queue length does an incoming req see
system.mem_ctrl.wrQLenPdf::47                       0                       # What write queue length does an incoming req see
system.mem_ctrl.wrQLenPdf::48                       0                       # What write queue length does an incoming req see
system.mem_ctrl.wrQLenPdf::49                       0                       # What write queue length does an incoming req see
system.mem_ctrl.wrQLenPdf::50                       0                       # What write queue length does an incoming req see
system.mem_ctrl.wrQLenPdf::51                       0                       # What write queue length does an incoming req see
system.mem_ctrl.wrQLenPdf::52                       0                       # What write queue length does an incoming req see
system.mem_ctrl.wrQLenPdf::53                       0                       # What write queue length does an incoming req see
system.mem_ctrl.wrQLenPdf::54                       0                       # What write queue length does an incoming req see
system.mem_ctrl.wrQLenPdf::55                       0                       # What write queue length does an incoming req see
system.mem_ctrl.wrQLenPdf::56                       0                       # What write queue length does an incoming req see
system.mem_ctrl.wrQLenPdf::57                       0                       # What write queue length does an incoming req see
system.mem_ctrl.wrQLenPdf::58                       0                       # What write queue length does an incoming req see
system.mem_ctrl.wrQLenPdf::59                       0                       # What write queue length does an incoming req see
system.mem_ctrl.wrQLenPdf::60                       0                       # What write queue length does an incoming req see
system.mem_ctrl.wrQLenPdf::61                       0                       # What write queue length does an incoming req see
system.mem_ctrl.wrQLenPdf::62                       0                       # What write queue length does an incoming req see
system.mem_ctrl.wrQLenPdf::63                       0                       # What write queue length does an incoming req see
system.mem_ctrl.bytesPerActivate::samples          151                       # Bytes accessed per row activation
system.mem_ctrl.bytesPerActivate::mean     309.403974                       # Bytes accessed per row activation
system.mem_ctrl.bytesPerActivate::gmean    198.185476                       # Bytes accessed per row activation
system.mem_ctrl.bytesPerActivate::stdev    299.952778                       # Bytes accessed per row activation
system.mem_ctrl.bytesPerActivate::0-127            45     29.80%     29.80% # Bytes accessed per row activation
system.mem_ctrl.bytesPerActivate::128-255           39     25.83%     55.63% # Bytes accessed per row activation
system.mem_ctrl.bytesPerActivate::256-383           20     13.25%     68.87% # Bytes accessed per row activation
system.mem_ctrl.bytesPerActivate::384-511           16     10.60%     79.47% # Bytes accessed per row activation
system.mem_ctrl.bytesPerActivate::512-639            6      3.97%     83.44% # Bytes accessed per row activation
system.mem_ctrl.bytesPerActivate::640-767            4      2.65%     86.09% # Bytes accessed per row activation
system.mem_ctrl.bytesPerActivate::768-895            4      2.65%     88.74% # Bytes accessed per row activation
system.mem_ctrl.bytesPerActivate::896-1023            6      3.97%     92.72% # Bytes accessed per row activation
system.mem_ctrl.bytesPerActivate::1024-1151           11      7.28%    100.00% # Bytes accessed per row activation
system.mem_ctrl.bytesPerActivate::total           151                       # Bytes accessed per row activation
system.mem_ctrl.masterReadBytes::.cpu.inst        32512                       # Per-master bytes read from memory
system.mem_ctrl.masterReadBytes::.cpu.data        16192                       # Per-master bytes read from memory
system.mem_ctrl.masterReadRate::.cpu.inst 709466241.871426701546                       # Per-master bytes read from memory rate (Bytes/sec)
system.mem_ctrl.masterReadRate::.cpu.data 353336533.845415294170                       # Per-master bytes read from memory rate (Bytes/sec)
system.mem_ctrl.masterReadAccesses::.cpu.inst          508                       # Per-master read serviced memory accesses
system.mem_ctrl.masterReadAccesses::.cpu.data          253                       # Per-master read serviced memory accesses
system.mem_ctrl.masterReadTotalLat::.cpu.inst     16537750                       # Per-master read total memory access latency
system.mem_ctrl.masterReadTotalLat::.cpu.data      8246000                       # Per-master read total memory access latency
system.mem_ctrl.masterReadAvgLat::.cpu.inst     32554.63                       # Per-master read average memory access latency
system.mem_ctrl.masterReadAvgLat::.cpu.data     32592.89                       # Per-master read average memory access latency
system.mem_ctrl.totQLat                      10515000                       # Total ticks spent queuing
system.mem_ctrl.totMemAccLat                 24783750                       # Total ticks spent from burst creation until serviced by the DRAM
system.mem_ctrl.totBusLat                     3805000                       # Total ticks spent in databus transfers
system.mem_ctrl.avgQLat                      13817.35                       # Average queueing delay per DRAM burst
system.mem_ctrl.avgBusLat                     5000.00                       # Average bus latency per DRAM burst
system.mem_ctrl.avgMemAccLat                 32567.35                       # Average memory access latency per DRAM burst
system.mem_ctrl.avgRdBW                       1062.80                       # Average DRAM read bandwidth in MiByte/s
system.mem_ctrl.avgWrBW                          0.00                       # Average achieved write bandwidth in MiByte/s
system.mem_ctrl.avgRdBWSys                    1062.80                       # Average system read bandwidth in MiByte/s
system.mem_ctrl.avgWrBWSys                       0.00                       # Average system write bandwidth in MiByte/s
system.mem_ctrl.peakBW                       12800.00                       # Theoretical peak bandwidth in MiByte/s
system.mem_ctrl.busUtil                          8.30                       # Data bus utilization in percentage
system.mem_ctrl.busUtilRead                      8.30                       # Data bus utilization in percentage for reads
system.mem_ctrl.busUtilWrite                     0.00                       # Data bus utilization in percentage for writes
system.mem_ctrl.avgRdQLen                        1.53                       # Average read queue length when enqueuing
system.mem_ctrl.avgWrQLen                        0.00                       # Average write queue length when enqueuing
system.mem_ctrl.readRowHits                       601                       # Number of row buffer hits during reads
system.mem_ctrl.writeRowHits                        0                       # Number of row buffer hits during writes
system.mem_ctrl.readRowHitRate                  78.98                       # Row buffer hit rate for reads
system.mem_ctrl.writeRowHitRate                   nan                       # Row buffer hit rate for writes
system.mem_ctrl.avgGap                       60097.24                       # Average gap between requests
system.mem_ctrl.pageHitRate                     78.98                       # Row buffer hit rate, read and write combined
system.mem_ctrl_0.actEnergy                    435540                       # Energy for activate commands per rank (pJ)
system.mem_ctrl_0.preEnergy                    212520                       # Energy for precharge commands per rank (pJ)
system.mem_ctrl_0.readEnergy                  2191980                       # Energy for read commands per rank (pJ)
system.mem_ctrl_0.writeEnergy                       0                       # Energy for write commands per rank (pJ)
system.mem_ctrl_0.refreshEnergy          3073200.000000                       # Energy for refresh commands per rank (pJ)
system.mem_ctrl_0.actBackEnergy               4210020                       # Energy for active background per rank (pJ)
system.mem_ctrl_0.preBackEnergy                 71520                       # Energy for precharge background per rank (pJ)
system.mem_ctrl_0.actPowerDownEnergy         15441300                       # Energy for active power-down per rank (pJ)
system.mem_ctrl_0.prePowerDownEnergy           977280                       # Energy for precharge power-down per rank (pJ)
system.mem_ctrl_0.selfRefreshEnergy                 0                       # Energy for self refresh per rank (pJ)
system.mem_ctrl_0.totalEnergy                26613360                       # Total energy per rank (pJ)
system.mem_ctrl_0.averagePower             580.748047                       # Core power per rank (mW)
system.mem_ctrl_0.totalIdleTime              36360500                       # Total Idle time Per DRAM Rank
system.mem_ctrl_0.memoryStateTime::IDLE         48500                       # Time in different power states
system.mem_ctrl_0.memoryStateTime::REF        1300000                       # Time in different power states
system.mem_ctrl_0.memoryStateTime::SREF             0                       # Time in different power states
system.mem_ctrl_0.memoryStateTime::PRE_PDN      2544500                       # Time in different power states
system.mem_ctrl_0.memoryStateTime::ACT        8068250                       # Time in different power states
system.mem_ctrl_0.memoryStateTime::ACT_PDN     33864750                       # Time in different power states
system.mem_ctrl_1.actEnergy                    706860                       # Energy for activate commands per rank (pJ)
system.mem_ctrl_1.preEnergy                    360525                       # Energy for precharge commands per rank (pJ)
system.mem_ctrl_1.readEnergy                  3241560                       # Energy for read commands per rank (pJ)
system.mem_ctrl_1.writeEnergy                       0                       # Energy for write commands per rank (pJ)
system.mem_ctrl_1.refreshEnergy          3073200.000000                       # Energy for refresh commands per rank (pJ)
system.mem_ctrl_1.actBackEnergy               5554080                       # Energy for active background per rank (pJ)
system.mem_ctrl_1.preBackEnergy                132960                       # Energy for precharge background per rank (pJ)
system.mem_ctrl_1.actPowerDownEnergy         14731080                       # Energy for active power-down per rank (pJ)
system.mem_ctrl_1.prePowerDownEnergy           382080                       # Energy for precharge power-down per rank (pJ)
system.mem_ctrl_1.selfRefreshEnergy                 0                       # Energy for self refresh per rank (pJ)
system.mem_ctrl_1.totalEnergy                28182345                       # Total energy per rank (pJ)
system.mem_ctrl_1.averagePower             614.985925                       # Core power per rank (mW)
system.mem_ctrl_1.totalIdleTime              33144750                       # Total Idle time Per DRAM Rank
system.mem_ctrl_1.memoryStateTime::IDLE        124500                       # Time in different power states
system.mem_ctrl_1.memoryStateTime::REF        1300000                       # Time in different power states
system.mem_ctrl_1.memoryStateTime::SREF             0                       # Time in different power states
system.mem_ctrl_1.memoryStateTime::PRE_PDN       995000                       # Time in different power states
system.mem_ctrl_1.memoryStateTime::ACT       11095000                       # Time in different power states
system.mem_ctrl_1.memoryStateTime::ACT_PDN     32311500                       # Time in different power states
system.pwrStateResidencyTicks::UNDEFINED     45826000                       # Cumulative time (in ticks) in various power states
system.cpu.branchPred.lookups                    3957                       # Number of BP lookups
system.cpu.branchPred.condPredicted              3957                       # Number of conditional branches predicted
system.cpu.branchPred.condIncorrect               861                       # Number of conditional branches incorrect
system.cpu.branchPred.BTBLookups                 3545                       # Number of BTB lookups
system.cpu.branchPred.BTBHits                       0                       # Number of BTB hits
system.cpu.branchPred.BTBCorrect                    0                       # Number of correct BTB predictions (this stat may not work properly.
system.cpu.branchPred.BTBHitPct              0.000000                       # BTB Hit Percentage
system.cpu.branchPred.usedRAS                     306                       # Number of times the RAS was used to get a target.
system.cpu.branchPred.RASInCorrect                139                       # Number of incorrect RAS predictions.
system.cpu.branchPred.indirectLookups            3545                       # Number of indirect predictor lookups.
system.cpu.branchPred.indirectHits                428                       # Number of indirect target hits.
system.cpu.branchPred.indirectMisses             3117                       # Number of indirect misses.
system.cpu.branchPredindirectMispredicted          672                       # Number of mispredicted indirect branches.
system.cpu.dtb.walker.pwrStateResidencyTicks::UNDEFINED     45826000                       # Cumulative time (in ticks) in various power states
system.cpu.dtb.rdAccesses                        2186                       # TLB accesses on read requests
system.cpu.dtb.wrAccesses                        1814                       # TLB accesses on write requests
system.cpu.dtb.rdMisses                            89                       # TLB misses on read requests
system.cpu.dtb.wrMisses                            29                       # TLB misses on write requests
system.cpu.apic_clk_domain.clock                 8000                       # Clock period in ticks
system.cpu.interrupts.pwrStateResidencyTicks::UNDEFINED     45826000                       # Cumulative time (in ticks) in various power states
system.cpu.itb.walker.pwrStateResidencyTicks::UNDEFINED     45826000                       # Cumulative time (in ticks) in various power states
system.cpu.itb.rdAccesses                           0                       # TLB accesses on read requests
system.cpu.itb.wrAccesses                        2635                       # TLB accesses on write requests
system.cpu.itb.rdMisses                             0                       # TLB misses on read requests
system.cpu.itb.wrMisses                           142                       # TLB misses on write requests
system.cpu.workload.numSyscalls                    11                       # Number of system calls
system.cpu.pwrStateResidencyTicks::ON        45826000                       # Cumulative time (in ticks) in various power states
system.cpu.numCycles                            91653                       # number of cpu cycles simulated
system.cpu.numWorkItemsStarted                      0                       # number of work items this cpu started
system.cpu.numWorkItemsCompleted                    0                       # number of work items this cpu completed
system.cpu.fetch.icacheStallCycles              32489                       # Number of cycles fetch is stalled on an Icache miss
system.cpu.fetch.Insts                          18415                       # Number of instructions fetch has processed
system.cpu.fetch.Branches                        3957                       # Number of branches that fetch encountered
system.cpu.fetch.predictedBranches                734                       # Number of branches that fetch has predicted taken
system.cpu.fetch.Cycles                         31042                       # Number of cycles fetch has run and was not squashing or blocked
system.cpu.fetch.SquashCycles                    1862                       # Number of cycles fetch has spent squashing
system.cpu.fetch.TlbCycles                         70                       # Number of cycles fetch has spent waiting for tlb
system.cpu.fetch.MiscStallCycles                   68                       # Number of cycles fetch has spent waiting on interrupts, or bad addresses, or out of MSHRs
system.cpu.fetch.PendingTrapStallCycles           898                       # Number of stall cycles due to pending traps
system.cpu.fetch.PendingQuiesceStallCycles           18                       # Number of stall cycles due to pending quiesce instructions
system.cpu.fetch.CacheLines                      2541                       # Number of cache lines fetched
system.cpu.fetch.IcacheSquashes                   280                       # Number of outstanding Icache misses that were squashed
system.cpu.fetch.ItlbSquashes                       1                       # Number of outstanding ITLB misses that were squashed
system.cpu.fetch.rateDist::samples              65516                       # Number of instructions fetched each cycle (Total)
system.cpu.fetch.rateDist::mean              0.560474                       # Number of instructions fetched each cycle (Total)
system.cpu.fetch.rateDist::stdev             0.890763                       # Number of instructions fetched each cycle (Total)
system.cpu.fetch.rateDist::underflows               0      0.00%      0.00% # Number of instructions fetched each cycle (Total)
system.cpu.fetch.rateDist::0                    46718     71.31%     71.31% # Number of instructions fetched each cycle (Total)
system.cpu.fetch.rateDist::1                      876      1.34%     72.64% # Number of instructions fetched each cycle (Total)
system.cpu.fetch.rateDist::2                    17922     27.36%    100.00% # Number of instructions fetched each cycle (Total)
system.cpu.fetch.rateDist::overflows                0      0.00%    100.00% # Number of instructions fetched each cycle (Total)
system.cpu.fetch.rateDist::min_value                0                       # Number of instructions fetched each cycle (Total)
system.cpu.fetch.rateDist::max_value                2                       # Number of instructions fetched each cycle (Total)
system.cpu.fetch.rateDist::total                65516                       # Number of instructions fetched each cycle (Total)
system.cpu.fetch.branchRate                  0.043174                       # Number of branch fetches per cycle
system.cpu.fetch.rate                        0.200921                       # Number of inst fetches per cycle
system.cpu.decode.IdleCycles                    32444                       # Number of cycles decode is idle
system.cpu.decode.BlockedCycles                 14929                       # Number of cycles decode is blocked
system.cpu.decode.RunCycles                     16798                       # Number of cycles decode is running
system.cpu.decode.UnblockCycles                   414                       # Number of cycles decode is unblocking
system.cpu.decode.SquashCycles                    931                       # Number of cycles decode is squashing
system.cpu.decode.DecodedInsts                  31760                       # Number of instructions handled by decode
system.cpu.decode.SquashedInsts                  1972                       # Number of squashed instructions handled by decode
system.cpu.rename.SquashCycles                    931                       # Number of cycles rename is squashing
system.cpu.rename.IdleCycles                    34326                       # Number of cycles rename is idle
system.cpu.rename.BlockCycles                    4476                       # Number of cycles rename is blocking
system.cpu.rename.serializeStallCycles           1079                       # count of cycles rename stalled for serializing inst
system.cpu.rename.RunCycles                     15304                       # Number of cycles rename is running
system.cpu.rename.UnblockCycles                  9400                       # Number of cycles rename is unblocking
system.cpu.rename.RenamedInsts                  29483                       # Number of instructions processed by rename
system.cpu.rename.SquashedInsts                   993                       # Number of squashed instructions processed by rename
system.cpu.rename.ROBFullEvents                    23                       # Number of times rename has blocked due to ROB full
system.cpu.rename.IQFullEvents                     64                       # Number of times rename has blocked due to IQ full
system.cpu.rename.SQFullEvents                   9112                       # Number of times rename has blocked due to SQ full
system.cpu.rename.FullRegisterEvents               11                       # Number of times there has been no free registers
system.cpu.rename.RenamedOperands               31874                       # Number of destination operands rename has renamed
system.cpu.rename.RenameLookups                 72460                       # Number of register rename lookups that rename has made
system.cpu.rename.int_rename_lookups            40356                       # Number of integer rename lookups
system.cpu.rename.fp_rename_lookups              4023                       # Number of floating rename lookups
system.cpu.rename.CommittedMaps                 16766                       # Number of HB maps that are committed
system.cpu.rename.UndoneMaps                    15108                       # Number of HB maps that are undone due to squashing
system.cpu.rename.serializingInsts                 25                       # count of serializing insts renamed
system.cpu.rename.tempSerializingInsts             22                       # count of temporary serializing insts renamed
system.cpu.rename.skidInsts                       853                       # count of insts added to the skid buffer
system.cpu.memDep0.insertedLoads                 2831                       # Number of loads inserted to the mem dependence unit.
system.cpu.memDep0.insertedStores                2395                       # Number of stores inserted to the mem dependence unit.
system.cpu.memDep0.conflictingLoads                16                       # Number of conflicting loads.
system.cpu.memDep0.conflictingStores               39                       # Number of conflicting stores.
system.cpu.iq.iqInstsAdded                      27164                       # Number of instructions added to the IQ (excludes non-spec)
system.cpu.iq.iqNonSpecInstsAdded                  84                       # Number of non-speculative instructions added to the IQ
system.cpu.iq.iqInstsIssued                     23679                       # Number of instructions issued
system.cpu.iq.iqSquashedInstsIssued               478                       # Number of squashed instructions issued
system.cpu.iq.iqSquashedInstsExamined           11679                       # Number of squashed instructions iterated over during squash; mainly for profiling
system.cpu.iq.iqSquashedOperandsExamined        15174                       # Number of squashed operands that are examined and possibly removed from graph
system.cpu.iq.iqSquashedNonSpecRemoved             73                       # Number of squashed non-spec instructions that were removed
system.cpu.iq.issued_per_cycle::samples         65516                       # Number of insts issued each cycle
system.cpu.iq.issued_per_cycle::mean         0.361423                       # Number of insts issued each cycle
system.cpu.iq.issued_per_cycle::stdev        0.713118                       # Number of insts issued each cycle
system.cpu.iq.issued_per_cycle::underflows            0      0.00%      0.00% # Number of insts issued each cycle
system.cpu.iq.issued_per_cycle::0               50935     77.74%     77.74% # Number of insts issued each cycle
system.cpu.iq.issued_per_cycle::1                5483      8.37%     86.11% # Number of insts issued each cycle
system.cpu.iq.issued_per_cycle::2                9098     13.89%    100.00% # Number of insts issued each cycle
system.cpu.iq.issued_per_cycle::overflows            0      0.00%    100.00% # Number of insts issued each cycle
system.cpu.iq.issued_per_cycle::min_value            0                       # Number of insts issued each cycle
system.cpu.iq.issued_per_cycle::max_value            2                       # Number of insts issued each cycle
system.cpu.iq.issued_per_cycle::total           65516                       # Number of insts issued each cycle
system.cpu.iq.fu_full::No_OpClass                   0      0.00%      0.00% # attempts to use FU when none available
system.cpu.iq.fu_full::IntAlu                       0      0.00%      0.00% # attempts to use FU when none available
system.cpu.iq.fu_full::IntMult                      0      0.00%      0.00% # attempts to use FU when none available
system.cpu.iq.fu_full::IntDiv                       0      0.00%      0.00% # attempts to use FU when none available
system.cpu.iq.fu_full::FloatAdd                     0      0.00%      0.00% # attempts to use FU when none available
system.cpu.iq.fu_full::FloatCmp                     0      0.00%      0.00% # attempts to use FU when none available
system.cpu.iq.fu_full::FloatCvt                     0      0.00%      0.00% # attempts to use FU when none available
system.cpu.iq.fu_full::FloatMult                    0      0.00%      0.00% # attempts to use FU when none available
system.cpu.iq.fu_full::FloatMultAcc                 0      0.00%      0.00% # attempts to use FU when none available
system.cpu.iq.fu_full::FloatDiv                     0      0.00%      0.00% # attempts to use FU when none available
system.cpu.iq.fu_full::FloatMisc                    0      0.00%      0.00% # attempts to use FU when none available
system.cpu.iq.fu_full::FloatSqrt                    0      0.00%      0.00% # attempts to use FU when none available
system.cpu.iq.fu_full::SimdAdd                    248     26.19%     26.19% # attempts to use FU when none available
system.cpu.iq.fu_full::SimdAddAcc                   0      0.00%     26.19% # attempts to use FU when none available
system.cpu.iq.fu_full::SimdAlu                     65      6.86%     33.05% # attempts to use FU when none available
system.cpu.iq.fu_full::SimdCmp                      0      0.00%     33.05% # attempts to use FU when none available
system.cpu.iq.fu_full::SimdCvt                     25      2.64%     35.69% # attempts to use FU when none available
system.cpu.iq.fu_full::SimdMisc                   120     12.67%     48.36% # attempts to use FU when none available
system.cpu.iq.fu_full::SimdMult                     0      0.00%     48.36% # attempts to use FU when none available
system.cpu.iq.fu_full::SimdMultAcc                  0      0.00%     48.36% # attempts to use FU when none available
system.cpu.iq.fu_full::SimdShift                  124     13.09%     61.46% # attempts to use FU when none available
system.cpu.iq.fu_full::SimdShiftAcc                 0      0.00%     61.46% # attempts to use FU when none available
system.cpu.iq.fu_full::SimdSqrt                     0      0.00%     61.46% # attempts to use FU when none available
system.cpu.iq.fu_full::SimdFloatAdd                 0      0.00%     61.46% # attempts to use FU when none available
system.cpu.iq.fu_full::SimdFloatAlu                 0      0.00%     61.46% # attempts to use FU when none available
system.cpu.iq.fu_full::SimdFloatCmp                 0      0.00%     61.46% # attempts to use FU when none available
system.cpu.iq.fu_full::SimdFloatCvt                 0      0.00%     61.46% # attempts to use FU when none available
system.cpu.iq.fu_full::SimdFloatDiv                 0      0.00%     61.46% # attempts to use FU when none available
system.cpu.iq.fu_full::SimdFloatMisc                0      0.00%     61.46% # attempts to use FU when none available
system.cpu.iq.fu_full::SimdFloatMult                0      0.00%     61.46% # attempts to use FU when none available
system.cpu.iq.fu_full::SimdFloatMultAcc             0      0.00%     61.46% # attempts to use FU when none available
system.cpu.iq.fu_full::SimdFloatSqrt                0      0.00%     61.46% # attempts to use FU when none available
system.cpu.iq.fu_full::SimdAes                      0      0.00%     61.46% # attempts to use FU when none available
system.cpu.iq.fu_full::SimdAesMix                   0      0.00%     61.46% # attempts to use FU when none available
system.cpu.iq.fu_full::SimdSha1Hash                 0      0.00%     61.46% # attempts to use FU when none available
system.cpu.iq.fu_full::SimdSha1Hash2                0      0.00%     61.46% # attempts to use FU when none available
system.cpu.iq.fu_full::SimdSha256Hash               0      0.00%     61.46% # attempts to use FU when none available
system.cpu.iq.fu_full::SimdSha256Hash2              0      0.00%     61.46% # attempts to use FU when none available
system.cpu.iq.fu_full::SimdShaSigma2                0      0.00%     61.46% # attempts to use FU when none available
system.cpu.iq.fu_full::SimdShaSigma3                0      0.00%     61.46% # attempts to use FU when none available
system.cpu.iq.fu_full::MemRead                    224     23.65%     85.11% # attempts to use FU when none available
system.cpu.iq.fu_full::MemWrite                   141     14.89%    100.00% # attempts to use FU when none available
system.cpu.iq.fu_full::FloatMemRead                 0      0.00%    100.00% # attempts to use FU when none available
system.cpu.iq.fu_full::FloatMemWrite                0      0.00%    100.00% # attempts to use FU when none available
system.cpu.iq.fu_full::IprAccess                    0      0.00%    100.00% # attempts to use FU when none available
system.cpu.iq.fu_full::InstPrefetch                 0      0.00%    100.00% # attempts to use FU when none available
system.cpu.iq.FU_type_0::No_OpClass               338      1.43%      1.43% # Type of FU issued
system.cpu.iq.FU_type_0::IntAlu                 17882     75.52%     76.95% # Type of FU issued
system.cpu.iq.FU_type_0::IntMult                    4      0.02%     76.96% # Type of FU issued
system.cpu.iq.FU_type_0::IntDiv                    31      0.13%     77.09% # Type of FU issued
system.cpu.iq.FU_type_0::FloatAdd                  13      0.05%     77.15% # Type of FU issued
system.cpu.iq.FU_type_0::FloatCmp                   0      0.00%     77.15% # Type of FU issued
system.cpu.iq.FU_type_0::FloatCvt                   0      0.00%     77.15% # Type of FU issued
system.cpu.iq.FU_type_0::FloatMult                  0      0.00%     77.15% # Type of FU issued
system.cpu.iq.FU_type_0::FloatMultAcc               0      0.00%     77.15% # Type of FU issued
system.cpu.iq.FU_type_0::FloatDiv                   0      0.00%     77.15% # Type of FU issued
system.cpu.iq.FU_type_0::FloatMisc                  0      0.00%     77.15% # Type of FU issued
system.cpu.iq.FU_type_0::FloatSqrt                  0      0.00%     77.15% # Type of FU issued
system.cpu.iq.FU_type_0::SimdAdd                  375      1.58%     78.73% # Type of FU issued
system.cpu.iq.FU_type_0::SimdAddAcc                 0      0.00%     78.73% # Type of FU issued
system.cpu.iq.FU_type_0::SimdAlu                   94      0.40%     79.13% # Type of FU issued
system.cpu.iq.FU_type_0::SimdCmp                    0      0.00%     79.13% # Type of FU issued
system.cpu.iq.FU_type_0::SimdCvt                  130      0.55%     79.68% # Type of FU issued
system.cpu.iq.FU_type_0::SimdMisc                 241      1.02%     80.70% # Type of FU issued
system.cpu.iq.FU_type_0::SimdMult                   0      0.00%     80.70% # Type of FU issued
system.cpu.iq.FU_type_0::SimdMultAcc                0      0.00%     80.70% # Type of FU issued
system.cpu.iq.FU_type_0::SimdShift                186      0.79%     81.48% # Type of FU issued
system.cpu.iq.FU_type_0::SimdShiftAcc               0      0.00%     81.48% # Type of FU issued
system.cpu.iq.FU_type_0::SimdSqrt                   0      0.00%     81.48% # Type of FU issued
system.cpu.iq.FU_type_0::SimdFloatAdd               0      0.00%     81.48% # Type of FU issued
system.cpu.iq.FU_type_0::SimdFloatAlu               0      0.00%     81.48% # Type of FU issued
system.cpu.iq.FU_type_0::SimdFloatCmp               0      0.00%     81.48% # Type of FU issued
system.cpu.iq.FU_type_0::SimdFloatCvt               0      0.00%     81.48% # Type of FU issued
system.cpu.iq.FU_type_0::SimdFloatDiv               0      0.00%     81.48% # Type of FU issued
system.cpu.iq.FU_type_0::SimdFloatMisc              0      0.00%     81.48% # Type of FU issued
system.cpu.iq.FU_type_0::SimdFloatMult              0      0.00%     81.48% # Type of FU issued
system.cpu.iq.FU_type_0::SimdFloatMultAcc            0      0.00%     81.48% # Type of FU issued
system.cpu.iq.FU_type_0::SimdFloatSqrt              0      0.00%     81.48% # Type of FU issued
system.cpu.iq.FU_type_0::SimdAes                    0      0.00%     81.48% # Type of FU issued
system.cpu.iq.FU_type_0::SimdAesMix                 0      0.00%     81.48% # Type of FU issued
system.cpu.iq.FU_type_0::SimdSha1Hash               0      0.00%     81.48% # Type of FU issued
system.cpu.iq.FU_type_0::SimdSha1Hash2              0      0.00%     81.48% # Type of FU issued
system.cpu.iq.FU_type_0::SimdSha256Hash             0      0.00%     81.48% # Type of FU issued
system.cpu.iq.FU_type_0::SimdSha256Hash2            0      0.00%     81.48% # Type of FU issued
system.cpu.iq.FU_type_0::SimdShaSigma2              0      0.00%     81.48% # Type of FU issued
system.cpu.iq.FU_type_0::SimdShaSigma3              0      0.00%     81.48% # Type of FU issued
system.cpu.iq.FU_type_0::MemRead                 2331      9.84%     91.33% # Type of FU issued
system.cpu.iq.FU_type_0::MemWrite                1526      6.44%     97.77% # Type of FU issued
system.cpu.iq.FU_type_0::FloatMemRead              89      0.38%     98.15% # Type of FU issued
system.cpu.iq.FU_type_0::FloatMemWrite            439      1.85%    100.00% # Type of FU issued
system.cpu.iq.FU_type_0::IprAccess                  0      0.00%    100.00% # Type of FU issued
system.cpu.iq.FU_type_0::InstPrefetch               0      0.00%    100.00% # Type of FU issued
system.cpu.iq.FU_type_0::total                  23679                       # Type of FU issued
system.cpu.iq.rate                           0.258355                       # Inst issue rate
system.cpu.iq.fu_busy_cnt                         947                       # FU busy when requested
system.cpu.iq.fu_busy_rate                   0.039993                       # FU busy rate (busy events/executed inst)
system.cpu.iq.int_inst_queue_reads             109533                       # Number of integer instruction queue reads
system.cpu.iq.int_inst_queue_writes             36756                       # Number of integer instruction queue writes
system.cpu.iq.int_inst_queue_wakeup_accesses        19020                       # Number of integer instruction queue wakeup accesses
system.cpu.iq.fp_inst_queue_reads                4766                       # Number of floating instruction queue reads
system.cpu.iq.fp_inst_queue_writes               2175                       # Number of floating instruction queue writes
system.cpu.iq.fp_inst_queue_wakeup_accesses         2070                       # Number of floating instruction queue wakeup accesses
system.cpu.iq.vec_inst_queue_reads                  0                       # Number of vector instruction queue reads
system.cpu.iq.vec_inst_queue_writes                 0                       # Number of vector instruction queue writes
system.cpu.iq.vec_inst_queue_wakeup_accesses            0                       # Number of vector instruction queue wakeup accesses
system.cpu.iq.int_alu_accesses                  21615                       # Number of integer alu accesses
system.cpu.iq.fp_alu_accesses                    2673                       # Number of floating point alu accesses
system.cpu.iq.vec_alu_accesses                      0                       # Number of vector alu accesses
system.cpu.iew.lsq.thread0.forwLoads               46                       # Number of loads that had data forwarded from stores
system.cpu.iew.lsq.thread0.invAddrLoads             0                       # Number of loads ignored due to an invalid address
system.cpu.iew.lsq.thread0.squashedLoads         1364                       # Number of loads squashed
system.cpu.iew.lsq.thread0.ignoredResponses            1                       # Number of memory responses ignored because the instruction is squashed
system.cpu.iew.lsq.thread0.memOrderViolation            4                       # Number of memory ordering violations
system.cpu.iew.lsq.thread0.squashedStores          861                       # Number of stores squashed
system.cpu.iew.lsq.thread0.invAddrSwpfs             0                       # Number of software prefetches ignored due to an invalid address
system.cpu.iew.lsq.thread0.blockedLoads             0                       # Number of blocked loads due to partial load-store forwarding
system.cpu.iew.lsq.thread0.rescheduledLoads            0                       # Number of loads that were rescheduled
system.cpu.iew.lsq.thread0.cacheBlocked            12                       # Number of times an access to memory failed due to the cache being blocked
system.cpu.iew.iewIdleCycles                        0                       # Number of cycles IEW is idle
system.cpu.iew.iewSquashCycles                    931                       # Number of cycles IEW is squashing
system.cpu.iew.iewBlockCycles                    1790                       # Number of cycles IEW is blocking
system.cpu.iew.iewUnblockCycles                  1142                       # Number of cycles IEW is unblocking
system.cpu.iew.iewDispatchedInsts               27248                       # Number of instructions dispatched to IQ
system.cpu.iew.iewDispSquashedInsts               797                       # Number of squashed instructions skipped by dispatch
system.cpu.iew.iewDispLoadInsts                  2831                       # Number of dispatched load instructions
system.cpu.iew.iewDispStoreInsts                 2395                       # Number of dispatched store instructions
system.cpu.iew.iewDispNonSpecInsts                 40                       # Number of dispatched non-speculative instructions
system.cpu.iew.iewIQFullEvents                     25                       # Number of times the IQ has become full, causing a stall
system.cpu.iew.iewLSQFullEvents                  1106                       # Number of times the LSQ has become full, causing a stall
system.cpu.iew.memOrderViolationEvents              4                       # Number of memory order violations
system.cpu.iew.predictedTakenIncorrect            169                       # Number of branches that were predicted taken incorrectly
system.cpu.iew.predictedNotTakenIncorrect          886                       # Number of branches that were predicted not taken incorrectly
system.cpu.iew.branchMispredicts                 1055                       # Number of branch mispredicts detected at execute
system.cpu.iew.iewExecutedInsts                 21639                       # Number of executed instructions
system.cpu.iew.iewExecLoadInsts                  2171                       # Number of load instructions executed
system.cpu.iew.iewExecSquashedInsts              2040                       # Number of squashed instructions skipped in execute
system.cpu.iew.exec_swp                             0                       # number of swp insts executed
system.cpu.iew.exec_nop                             0                       # number of nop insts executed
system.cpu.iew.exec_refs                         3985                       # number of memory reference insts executed
system.cpu.iew.exec_branches                     1913                       # Number of branches executed
system.cpu.iew.exec_stores                       1814                       # Number of stores executed
system.cpu.iew.exec_rate                     0.236097                       # Inst execution rate
system.cpu.iew.wb_sent                          21377                       # cumulative count of insts sent to commit
system.cpu.iew.wb_count                         21090                       # cumulative count of insts written-back
system.cpu.iew.wb_producers                     14447                       # num instructions producing a value
system.cpu.iew.wb_consumers                     22279                       # num instructions consuming a value
system.cpu.iew.wb_rate                       0.230107                       # insts written-back per cycle
system.cpu.iew.wb_fanout                     0.648458                       # average fanout of values written-back
system.cpu.commit.commitSquashedInsts           10508                       # The number of squashed insts skipped by commit
system.cpu.commit.commitNonSpecStalls              11                       # The number of times commit has been forced to stall to communicate backwards
system.cpu.commit.branchMispredicts               927                       # The number of times a branch was mispredicted
system.cpu.commit.committed_per_cycle::samples        64314                       # Number of insts commited each cycle
system.cpu.commit.committed_per_cycle::mean     0.242062                       # Number of insts commited each cycle
system.cpu.commit.committed_per_cycle::stdev     0.606738                       # Number of insts commited each cycle
system.cpu.commit.committed_per_cycle::underflows            0      0.00%      0.00% # Number of insts commited each cycle
system.cpu.commit.committed_per_cycle::0        54684     85.03%     85.03% # Number of insts commited each cycle
system.cpu.commit.committed_per_cycle::1         3692      5.74%     90.77% # Number of insts commited each cycle
system.cpu.commit.committed_per_cycle::2         5938      9.23%    100.00% # Number of insts commited each cycle
system.cpu.commit.committed_per_cycle::overflows            0      0.00%    100.00% # Number of insts commited each cycle
system.cpu.commit.committed_per_cycle::min_value            0                       # Number of insts commited each cycle
system.cpu.commit.committed_per_cycle::max_value            2                       # Number of insts commited each cycle
system.cpu.commit.committed_per_cycle::total        64314                       # Number of insts commited each cycle
system.cpu.commit.committedInsts                 7717                       # Number of instructions committed
system.cpu.commit.committedOps                  15568                       # Number of ops (including micro ops) committed
system.cpu.commit.swp_count                         0                       # Number of s/w prefetches committed
system.cpu.commit.refs                           3001                       # Number of memory references committed
system.cpu.commit.loads                          1467                       # Number of loads committed
system.cpu.commit.membars                           0                       # Number of memory barriers committed
system.cpu.commit.branches                       1579                       # Number of branches committed
system.cpu.commit.vec_insts                         0                       # Number of committed Vector instructions.
system.cpu.commit.fp_insts                       2049                       # Number of committed floating point instructions.
system.cpu.commit.int_insts                     13970                       # Number of committed integer instructions.
system.cpu.commit.function_calls                  153                       # Number of function calls committed.
system.cpu.commit.op_class_0::No_OpClass          109      0.70%      0.70% # Class of committed instruction
system.cpu.commit.op_class_0::IntAlu            11394     73.19%     73.89% # Class of committed instruction
system.cpu.commit.op_class_0::IntMult               4      0.03%     73.91% # Class of committed instruction
system.cpu.commit.op_class_0::IntDiv               28      0.18%     74.09% # Class of committed instruction
system.cpu.commit.op_class_0::FloatAdd             12      0.08%     74.17% # Class of committed instruction
system.cpu.commit.op_class_0::FloatCmp              0      0.00%     74.17% # Class of committed instruction
system.cpu.commit.op_class_0::FloatCvt              0      0.00%     74.17% # Class of committed instruction
system.cpu.commit.op_class_0::FloatMult             0      0.00%     74.17% # Class of committed instruction
system.cpu.commit.op_class_0::FloatMultAcc            0      0.00%     74.17% # Class of committed instruction
system.cpu.commit.op_class_0::FloatDiv              0      0.00%     74.17% # Class of committed instruction
system.cpu.commit.op_class_0::FloatMisc             0      0.00%     74.17% # Class of committed instruction
system.cpu.commit.op_class_0::FloatSqrt             0      0.00%     74.17% # Class of committed instruction
system.cpu.commit.op_class_0::SimdAdd             374      2.40%     76.57% # Class of committed instruction
system.cpu.commit.op_class_0::SimdAddAcc            0      0.00%     76.57% # Class of committed instruction
system.cpu.commit.op_class_0::SimdAlu              90      0.58%     77.15% # Class of committed instruction
system.cpu.commit.op_class_0::SimdCmp               0      0.00%     77.15% # Class of committed instruction
system.cpu.commit.op_class_0::SimdCvt             130      0.84%     77.99% # Class of committed instruction
system.cpu.commit.op_class_0::SimdMisc            240      1.54%     79.53% # Class of committed instruction
system.cpu.commit.op_class_0::SimdMult              0      0.00%     79.53% # Class of committed instruction
system.cpu.commit.op_class_0::SimdMultAcc            0      0.00%     79.53% # Class of committed instruction
system.cpu.commit.op_class_0::SimdShift           186      1.19%     80.72% # Class of committed instruction
system.cpu.commit.op_class_0::SimdShiftAcc            0      0.00%     80.72% # Class of committed instruction
system.cpu.commit.op_class_0::SimdSqrt              0      0.00%     80.72% # Class of committed instruction
system.cpu.commit.op_class_0::SimdFloatAdd            0      0.00%     80.72% # Class of committed instruction
system.cpu.commit.op_class_0::SimdFloatAlu            0      0.00%     80.72% # Class of committed instruction
system.cpu.commit.op_class_0::SimdFloatCmp            0      0.00%     80.72% # Class of committed instruction
system.cpu.commit.op_class_0::SimdFloatCvt            0      0.00%     80.72% # Class of committed instruction
system.cpu.commit.op_class_0::SimdFloatDiv            0      0.00%     80.72% # Class of committed instruction
system.cpu.commit.op_class_0::SimdFloatMisc            0      0.00%     80.72% # Class of committed instruction
system.cpu.commit.op_class_0::SimdFloatMult            0      0.00%     80.72% # Class of committed instruction
system.cpu.commit.op_class_0::SimdFloatMultAcc            0      0.00%     80.72% # Class of committed instruction
system.cpu.commit.op_class_0::SimdFloatSqrt            0      0.00%     80.72% # Class of committed instruction
system.cpu.commit.op_class_0::SimdAes               0      0.00%     80.72% # Class of committed instruction
system.cpu.commit.op_class_0::SimdAesMix            0      0.00%     80.72% # Class of committed instruction
system.cpu.commit.op_class_0::SimdSha1Hash            0      0.00%     80.72% # Class of committed instruction
system.cpu.commit.op_class_0::SimdSha1Hash2            0      0.00%     80.72% # Class of committed instruction
system.cpu.commit.op_class_0::SimdSha256Hash            0      0.00%     80.72% # Class of committed instruction
system.cpu.commit.op_class_0::SimdSha256Hash2            0      0.00%     80.72% # Class of committed instruction
system.cpu.commit.op_class_0::SimdShaSigma2            0      0.00%     80.72% # Class of committed instruction
system.cpu.commit.op_class_0::SimdShaSigma3            0      0.00%     80.72% # Class of committed instruction
system.cpu.commit.op_class_0::MemRead            1393      8.95%     89.67% # Class of committed instruction
system.cpu.commit.op_class_0::MemWrite           1113      7.15%     96.82% # Class of committed instruction
system.cpu.commit.op_class_0::FloatMemRead           74      0.48%     97.30% # Class of committed instruction
system.cpu.commit.op_class_0::FloatMemWrite          421      2.70%    100.00% # Class of committed instruction
system.cpu.commit.op_class_0::IprAccess             0      0.00%    100.00% # Class of committed instruction
system.cpu.commit.op_class_0::InstPrefetch            0      0.00%    100.00% # Class of committed instruction
system.cpu.commit.op_class_0::total             15568                       # Class of committed instruction
system.cpu.commit.bw_lim_events                  5938                       # number cycles where commit BW limit reached
system.cpu.rob.rob_reads                        84452                       # The number of ROB reads
system.cpu.rob.rob_writes                       53357                       # The number of ROB writes
system.cpu.timesIdled                             313                       # Number of times that the entire CPU went into an idle state and unscheduled itself
system.cpu.idleCycles                           26137                       # Total number of cycles that the CPU has spent unscheduled due to idling
system.cpu.committedInsts                        7717                       # Number of Instructions Simulated
system.cpu.committedOps                         15568                       # Number of Ops (including micro ops) Simulated
system.cpu.cpi                              11.876766                       # CPI: Cycles Per Instruction
system.cpu.cpi_total                        11.876766                       # CPI: Total CPI of All Threads
system.cpu.ipc                               0.084198                       # IPC: Instructions Per Cycle
system.cpu.ipc_total                         0.084198                       # IPC: Total IPC of All Threads
system.cpu.int_regfile_reads                    27445                       # number of integer regfile reads
system.cpu.int_regfile_writes                   15765                       # number of integer regfile writes
system.cpu.fp_regfile_reads                      3966                       # number of floating regfile reads
system.cpu.fp_regfile_writes                     1574                       # number of floating regfile writes
system.cpu.cc_regfile_reads                      9439                       # number of cc regfile reads
system.cpu.cc_regfile_writes                     5567                       # number of cc regfile writes
system.cpu.misc_regfile_reads                    9020                       # number of misc regfile reads
system.cpu.dcache.tags.pwrStateResidencyTicks::UNDEFINED     45826000                       # Cumulative time (in ticks) in various power states
system.cpu.dcache.tags.tagsinuse           146.154860                       # Cycle average of tags in use
system.cpu.dcache.tags.total_refs                3467                       # Total number of references to valid blocks.
system.cpu.dcache.tags.sampled_refs               255                       # Sample count of references to valid blocks.
system.cpu.dcache.tags.avg_refs             13.596078                       # Average number of references to valid blocks.
system.cpu.dcache.tags.warmup_cycle            170000                       # Cycle when the warmup percentage was hit.
system.cpu.dcache.tags.occ_blocks::.cpu.data   146.154860                       # Average occupied blocks per requestor
system.cpu.dcache.tags.occ_percent::.cpu.data     0.285459                       # Average percentage of cache occupancy
system.cpu.dcache.tags.occ_percent::total     0.285459                       # Average percentage of cache occupancy
system.cpu.dcache.tags.occ_task_id_blocks::1024          255                       # Occupied blocks per task id
system.cpu.dcache.tags.age_task_id_blocks_1024::0           35                       # Occupied blocks per task id
system.cpu.dcache.tags.age_task_id_blocks_1024::1          220                       # Occupied blocks per task id
system.cpu.dcache.tags.occ_task_id_percent::1024     0.498047                       # Percentage of cache occupancy per task id
system.cpu.dcache.tags.tag_accesses             28959                       # Number of tag accesses
system.cpu.dcache.tags.data_accesses            28959                       # Number of data accesses
system.cpu.dcache.pwrStateResidencyTicks::UNDEFINED     45826000                       # Cumulative time (in ticks) in various power states
system.cpu.dcache.ReadReq_hits::.cpu.data         1809                       # number of ReadReq hits
system.cpu.dcache.ReadReq_hits::total            1809                       # number of ReadReq hits
system.cpu.dcache.WriteReq_hits::.cpu.data         1403                       # number of WriteReq hits
system.cpu.dcache.WriteReq_hits::total           1403                       # number of WriteReq hits
system.cpu.dcache.demand_hits::.cpu.data         3212                       # number of demand (read+write) hits
system.cpu.dcache.demand_hits::total             3212                       # number of demand (read+write) hits
system.cpu.dcache.overall_hits::.cpu.data         3212                       # number of overall hits
system.cpu.dcache.overall_hits::total            3212                       # number of overall hits
system.cpu.dcache.ReadReq_misses::.cpu.data          245                       # number of ReadReq misses
system.cpu.dcache.ReadReq_misses::total           245                       # number of ReadReq misses
system.cpu.dcache.WriteReq_misses::.cpu.data          131                       # number of WriteReq misses
system.cpu.dcache.WriteReq_misses::total          131                       # number of WriteReq misses
system.cpu.dcache.demand_misses::.cpu.data          376                       # number of demand (read+write) misses
system.cpu.dcache.demand_misses::total            376                       # number of demand (read+write) misses
system.cpu.dcache.overall_misses::.cpu.data          376                       # number of overall misses
system.cpu.dcache.overall_misses::total           376                       # number of overall misses
system.cpu.dcache.ReadReq_miss_latency::.cpu.data     18791000                       # number of ReadReq miss cycles
system.cpu.dcache.ReadReq_miss_latency::total     18791000                       # number of ReadReq miss cycles
system.cpu.dcache.WriteReq_miss_latency::.cpu.data     10782500                       # number of WriteReq miss cycles
system.cpu.dcache.WriteReq_miss_latency::total     10782500                       # number of WriteReq miss cycles
system.cpu.dcache.demand_miss_latency::.cpu.data     29573500                       # number of demand (read+write) miss cycles
system.cpu.dcache.demand_miss_latency::total     29573500                       # number of demand (read+write) miss cycles
system.cpu.dcache.overall_miss_latency::.cpu.data     29573500                       # number of overall miss cycles
system.cpu.dcache.overall_miss_latency::total     29573500                       # number of overall miss cycles
system.cpu.dcache.ReadReq_accesses::.cpu.data         2054                       # number of ReadReq accesses(hits+misses)
system.cpu.dcache.ReadReq_accesses::total         2054                       # number of ReadReq accesses(hits+misses)
system.cpu.dcache.WriteReq_accesses::.cpu.data         1534                       # number of WriteReq accesses(hits+misses)
system.cpu.dcache.WriteReq_accesses::total         1534                       # number of WriteReq accesses(hits+misses)
system.cpu.dcache.demand_accesses::.cpu.data         3588                       # number of demand (read+write) accesses
system.cpu.dcache.demand_accesses::total         3588                       # number of demand (read+write) accesses
system.cpu.dcache.overall_accesses::.cpu.data         3588                       # number of overall (read+write) accesses
system.cpu.dcache.overall_accesses::total         3588                       # number of overall (read+write) accesses
system.cpu.dcache.ReadReq_miss_rate::.cpu.data     0.119279                       # miss rate for ReadReq accesses
system.cpu.dcache.ReadReq_miss_rate::total     0.119279                       # miss rate for ReadReq accesses
system.cpu.dcache.WriteReq_miss_rate::.cpu.data     0.085398                       # miss rate for WriteReq accesses
system.cpu.dcache.WriteReq_miss_rate::total     0.085398                       # miss rate for WriteReq accesses
system.cpu.dcache.demand_miss_rate::.cpu.data     0.104794                       # miss rate for demand accesses
system.cpu.dcache.demand_miss_rate::total     0.104794                       # miss rate for demand accesses
system.cpu.dcache.overall_miss_rate::.cpu.data     0.104794                       # miss rate for overall accesses
system.cpu.dcache.overall_miss_rate::total     0.104794                       # miss rate for overall accesses
system.cpu.dcache.ReadReq_avg_miss_latency::.cpu.data 76697.959184                       # average ReadReq miss latency
system.cpu.dcache.ReadReq_avg_miss_latency::total 76697.959184                       # average ReadReq miss latency
system.cpu.dcache.WriteReq_avg_miss_latency::.cpu.data 82309.160305                       # average WriteReq miss latency
system.cpu.dcache.WriteReq_avg_miss_latency::total 82309.160305                       # average WriteReq miss latency
system.cpu.dcache.demand_avg_miss_latency::.cpu.data 78652.925532                       # average overall miss latency
system.cpu.dcache.demand_avg_miss_latency::total 78652.925532                       # average overall miss latency
[...]
system.l3bus.snoop_fanout::1                        0      0.00%    100.00% # Request fanout histogram
system.l3bus.snoop_fanout::overflows                0      0.00%    100.00% # Request fanout histogram
system.l3bus.snoop_fanout::min_value                0                       # Request fanout histogram
system.l3bus.snoop_fanout::max_value                0                       # Request fanout histogram
system.l3bus.snoop_fanout::total                  761                       # Request fanout histogram
system.l3bus.reqLayer0.occupancy               380500                       # Layer occupancy (ticks)
system.l3bus.reqLayer0.utilization                0.8                       # Layer utilization (%)
system.l3bus.respLayer0.occupancy             1902500                       # Layer occupancy (ticks)
system.l3bus.respLayer0.utilization               4.2                       # Layer utilization (%)
system.l3cache.tags.pwrStateResidencyTicks::UNDEFINED     45826000                       # Cumulative time (in ticks) in various power states
system.l3cache.tags.tagsinuse              389.609389                       # Cycle average of tags in use
system.l3cache.tags.total_refs                    761                       # Total number of references to valid blocks.
system.l3cache.tags.sampled_refs                  761                       # Sample count of references to valid blocks.
system.l3cache.tags.avg_refs                        1                       # Average number of references to valid blocks.
system.l3cache.tags.warmup_cycle                76000                       # Cycle when the warmup percentage was hit.
system.l3cache.tags.occ_blocks::.cpu.inst   243.817555                       # Average occupied blocks per requestor
system.l3cache.tags.occ_blocks::.cpu.data   145.791834                       # Average occupied blocks per requestor
system.l3cache.tags.occ_percent::.cpu.inst     0.007441                       # Average percentage of cache occupancy
system.l3cache.tags.occ_percent::.cpu.data     0.004449                       # Average percentage of cache occupancy
system.l3cache.tags.occ_percent::total       0.011890                       # Average percentage of cache occupancy
system.l3cache.tags.occ_task_id_blocks::1024          761                       # Occupied blocks per task id
system.l3cache.tags.age_task_id_blocks_1024::0          156                       # Occupied blocks per task id
system.l3cache.tags.age_task_id_blocks_1024::1          605                       # Occupied blocks per task id
system.l3cache.tags.occ_task_id_percent::1024     0.023224                       # Percentage of cache occupancy per task id
system.l3cache.tags.tag_accesses                12937                       # Number of tag accesses
system.l3cache.tags.data_accesses               12937                       # Number of data accesses
system.l3cache.pwrStateResidencyTicks::UNDEFINED     45826000                       # Cumulative time (in ticks) in various power states
system.l3cache.ReadExReq_misses::.cpu.data          128                       # number of ReadExReq misses
system.l3cache.ReadExReq_misses::total            128                       # number of ReadExReq misses
system.l3cache.ReadSharedReq_misses::.cpu.inst          508                       # number of ReadSharedReq misses
system.l3cache.ReadSharedReq_misses::.cpu.data          125                       # number of ReadSharedReq misses
system.l3cache.ReadSharedReq_misses::total          633                       # number of ReadSharedReq misses
system.l3cache.demand_misses::.cpu.inst           508                       # number of demand (read+write) misses
system.l3cache.demand_misses::.cpu.data           253                       # number of demand (read+write) misses
system.l3cache.demand_misses::total               761                       # number of demand (read+write) misses
system.l3cache.overall_misses::.cpu.inst          508                       # number of overall misses
system.l3cache.overall_misses::.cpu.data          253                       # number of overall misses
system.l3cache.overall_misses::total              761                       # number of overall misses
system.l3cache.ReadExReq_miss_latency::.cpu.data      8852000                       # number of ReadExReq miss cycles
system.l3cache.ReadExReq_miss_latency::total      8852000                       # number of ReadExReq miss cycles
system.l3cache.ReadSharedReq_miss_latency::.cpu.inst     35445500                       # number of ReadSharedReq miss cycles
system.l3cache.ReadSharedReq_miss_latency::.cpu.data      8807000                       # number of ReadSharedReq miss cycles
system.l3cache.ReadSharedReq_miss_latency::total     44252500                       # number of ReadSharedReq miss cycles
system.l3cache.demand_miss_latency::.cpu.inst     35445500                       # number of demand (read+write) miss cycles
system.l3cache.demand_miss_latency::.cpu.data     17659000                       # number of demand (read+write) miss cycles
system.l3cache.demand_miss_latency::total     53104500                       # number of demand (read+write) miss cycles
system.l3cache.overall_miss_latency::.cpu.inst     35445500                       # number of overall miss cycles
system.l3cache.overall_miss_latency::.cpu.data     17659000                       # number of overall miss cycles
system.l3cache.overall_miss_latency::total     53104500                       # number of overall miss cycles
system.l3cache.ReadExReq_accesses::.cpu.data          128                       # number of ReadExReq accesses(hits+misses)
system.l3cache.ReadExReq_accesses::total          128                       # number of ReadExReq accesses(hits+misses)
system.l3cache.ReadSharedReq_accesses::.cpu.inst          508                       # number of ReadSharedReq accesses(hits+misses)
system.l3cache.ReadSharedReq_accesses::.cpu.data          125                       # number of ReadSharedReq accesses(hits+misses)
system.l3cache.ReadSharedReq_accesses::total          633                       # number of ReadSharedReq accesses(hits+misses)
system.l3cache.demand_accesses::.cpu.inst          508                       # number of demand (read+write) accesses
system.l3cache.demand_accesses::.cpu.data          253                       # number of demand (read+write) accesses
system.l3cache.demand_accesses::total             761                       # number of demand (read+write) accesses
system.l3cache.overall_accesses::.cpu.inst          508                       # number of overall (read+write) accesses
system.l3cache.overall_accesses::.cpu.data          253                       # number of overall (read+write) accesses
system.l3cache.overall_accesses::total            761                       # number of overall (read+write) accesses
system.l3cache.ReadExReq_miss_rate::.cpu.data            1                       # miss rate for ReadExReq accesses
system.l3cache.ReadExReq_miss_rate::total            1                       # miss rate for ReadExReq accesses
system.l3cache.ReadSharedReq_miss_rate::.cpu.inst            1                       # miss rate for ReadSharedReq accesses
system.l3cache.ReadSharedReq_miss_rate::.cpu.data            1                       # miss rate for ReadSharedReq accesses
system.l3cache.ReadSharedReq_miss_rate::total            1                       # miss rate for ReadSharedReq accesses
system.l3cache.demand_miss_rate::.cpu.inst            1                       # miss rate for demand accesses
system.l3cache.demand_miss_rate::.cpu.data            1                       # miss rate for demand accesses
system.l3cache.demand_miss_rate::total              1                       # miss rate for demand accesses
system.l3cache.overall_miss_rate::.cpu.inst            1                       # miss rate for overall accesses
system.l3cache.overall_miss_rate::.cpu.data            1                       # miss rate for overall accesses
system.l3cache.overall_miss_rate::total             1                       # miss rate for overall accesses
system.l3cache.ReadExReq_avg_miss_latency::.cpu.data 69156.250000                       # average ReadExReq miss latency
system.l3cache.ReadExReq_avg_miss_latency::total 69156.250000                       # average ReadExReq miss latency
system.l3cache.ReadSharedReq_avg_miss_latency::.cpu.inst 69774.606299                       # average ReadSharedReq miss latency
system.l3cache.ReadSharedReq_avg_miss_latency::.cpu.data        70456                       # average ReadSharedReq miss latency
system.l3cache.ReadSharedReq_avg_miss_latency::total 69909.162717                       # average ReadSharedReq miss latency
system.l3cache.demand_avg_miss_latency::.cpu.inst 69774.606299                       # average overall miss latency
system.l3cache.demand_avg_miss_latency::.cpu.data 69798.418972                       # average overall miss latency
system.l3cache.demand_avg_miss_latency::total 69782.522996                       # average overall miss latency
system.l3cache.overall_avg_miss_latency::.cpu.inst 69774.606299                       # average overall miss latency
system.l3cache.overall_avg_miss_latency::.cpu.data 69798.418972                       # average overall miss latency
system.l3cache.overall_avg_miss_latency::total 69782.522996                       # average overall miss latency
system.l3cache.blocked_cycles::no_mshrs             0                       # number of cycles access was blocked
system.l3cache.blocked_cycles::no_targets            0                       # number of cycles access was blocked
system.l3cache.blocked::no_mshrs                    0                       # number of cycles access was blocked
system.l3cache.blocked::no_targets                  0                       # number of cycles access was blocked
system.l3cache.avg_blocked_cycles::no_mshrs          nan                       # average number of cycles each access was blocked
system.l3cache.avg_blocked_cycles::no_targets          nan                       # average number of cycles each access was blocked
system.l3cache.ReadExReq_mshr_misses::.cpu.data          128                       # number of ReadExReq MSHR misses
system.l3cache.ReadExReq_mshr_misses::total          128                       # number of ReadExReq MSHR misses
system.l3cache.ReadSharedReq_mshr_misses::.cpu.inst          508                       # number of ReadSharedReq MSHR misses
system.l3cache.ReadSharedReq_mshr_misses::.cpu.data          125                       # number of ReadSharedReq MSHR misses
system.l3cache.ReadSharedReq_mshr_misses::total          633                       # number of ReadSharedReq MSHR misses
system.l3cache.demand_mshr_misses::.cpu.inst          508                       # number of demand (read+write) MSHR misses
system.l3cache.demand_mshr_misses::.cpu.data          253                       # number of demand (read+write) MSHR misses
system.l3cache.demand_mshr_misses::total          761                       # number of demand (read+write) MSHR misses
system.l3cache.overall_mshr_misses::.cpu.inst          508                       # number of overall MSHR misses
system.l3cache.overall_mshr_misses::.cpu.data          253                       # number of overall MSHR misses
system.l3cache.overall_mshr_misses::total          761                       # number of overall MSHR misses
system.l3cache.ReadExReq_mshr_miss_latency::.cpu.data      8596000                       # number of ReadExReq MSHR miss cycles
system.l3cache.ReadExReq_mshr_miss_latency::total      8596000                       # number of ReadExReq MSHR miss cycles
system.l3cache.ReadSharedReq_mshr_miss_latency::.cpu.inst     34429500                       # number of ReadSharedReq MSHR miss cycles
system.l3cache.ReadSharedReq_mshr_miss_latency::.cpu.data      8557000                       # number of ReadSharedReq MSHR miss cycles
system.l3cache.ReadSharedReq_mshr_miss_latency::total     42986500                       # number of ReadSharedReq MSHR miss cycles
system.l3cache.demand_mshr_miss_latency::.cpu.inst     34429500                       # number of demand (read+write) MSHR miss cycles
system.l3cache.demand_mshr_miss_latency::.cpu.data     17153000                       # number of demand (read+write) MSHR miss cycles
system.l3cache.demand_mshr_miss_latency::total     51582500                       # number of demand (read+write) MSHR miss cycles
system.l3cache.overall_mshr_miss_latency::.cpu.inst     34429500                       # number of overall MSHR miss cycles
system.l3cache.overall_mshr_miss_latency::.cpu.data     17153000                       # number of overall MSHR miss cycles
system.l3cache.overall_mshr_miss_latency::total     51582500                       # number of overall MSHR miss cycles
system.l3cache.ReadExReq_mshr_miss_rate::.cpu.data            1                       # mshr miss rate for ReadExReq accesses
system.l3cache.ReadExReq_mshr_miss_rate::total            1                       # mshr miss rate for ReadExReq accesses
system.l3cache.ReadSharedReq_mshr_miss_rate::.cpu.inst            1                       # mshr miss rate for ReadSharedReq accesses
system.l3cache.ReadSharedReq_mshr_miss_rate::.cpu.data            1                       # mshr miss rate for ReadSharedReq accesses
system.l3cache.ReadSharedReq_mshr_miss_rate::total            1                       # mshr miss rate for ReadSharedReq accesses
system.l3cache.demand_mshr_miss_rate::.cpu.inst            1                       # mshr miss rate for demand accesses
system.l3cache.demand_mshr_miss_rate::.cpu.data            1                       # mshr miss rate for demand accesses
system.l3cache.demand_mshr_miss_rate::total            1                       # mshr miss rate for demand accesses
system.l3cache.overall_mshr_miss_rate::.cpu.inst            1                       # mshr miss rate for overall accesses
system.l3cache.overall_mshr_miss_rate::.cpu.data            1                       # mshr miss rate for overall accesses
system.l3cache.overall_mshr_miss_rate::total            1                       # mshr miss rate for overall accesses
system.l3cache.ReadExReq_avg_mshr_miss_latency::.cpu.data 67156.250000                       # average ReadExReq mshr miss latency
system.l3cache.ReadExReq_avg_mshr_miss_latency::total 67156.250000                       # average ReadExReq mshr miss latency
system.l3cache.ReadSharedReq_avg_mshr_miss_latency::.cpu.inst 67774.606299                       # average ReadSharedReq mshr miss latency
system.l3cache.ReadSharedReq_avg_mshr_miss_latency::.cpu.data        68456                       # average ReadSharedReq mshr miss latency
system.l3cache.ReadSharedReq_avg_mshr_miss_latency::total 67909.162717                       # average ReadSharedReq mshr miss latency
system.l3cache.demand_avg_mshr_miss_latency::.cpu.inst 67774.606299                       # average overall mshr miss latency
system.l3cache.demand_avg_mshr_miss_latency::.cpu.data 67798.418972                       # average overall mshr miss latency
system.l3cache.demand_avg_mshr_miss_latency::total 67782.522996                       # average overall mshr miss latency
system.l3cache.overall_avg_mshr_miss_latency::.cpu.inst 67774.606299                       # average overall mshr miss latency
system.l3cache.overall_avg_mshr_miss_latency::.cpu.data 67798.418972                       # average overall mshr miss latency
system.l3cache.overall_avg_mshr_miss_latency::total 67782.522996                       # average overall mshr miss latency
system.l3cache.replacements                         0                       # number of replacements
system.membus.snoop_filter.tot_requests           761                       # Total number of requests made to the snoop filter.
system.membus.snoop_filter.hit_single_requests            0                       # Number of requests hitting in the snoop filter with a single holder of the requested data.
system.membus.snoop_filter.hit_multi_requests            0                       # Number of requests hitting in the snoop filter with multiple (>1) holders of the requested data.
system.membus.snoop_filter.tot_snoops               0                       # Total number of snoops made to the snoop filter.
system.membus.snoop_filter.hit_single_snoops            0                       # Number of snoops hitting in the snoop filter with a single holder of the requested data.
system.membus.snoop_filter.hit_multi_snoops            0                       # Number of snoops hitting in the snoop filter with multiple (>1) holders of the requested data.
system.membus.pwrStateResidencyTicks::UNDEFINED     45826000                       # Cumulative time (in ticks) in various power states
system.membus.trans_dist::ReadResp                633                       # Transaction distribution
system.membus.trans_dist::ReadExReq               128                       # Transaction distribution
system.membus.trans_dist::ReadExResp              128                       # Transaction distribution
system.membus.trans_dist::ReadSharedReq           633                       # Transaction distribution
system.membus.pkt_count_system.l3cache.mem_side::system.mem_ctrl.port         1522                       # Packet count per connected master and slave (bytes)
system.membus.pkt_count_system.l3cache.mem_side::total         1522                       # Packet count per connected master and slave (bytes)
system.membus.pkt_count::total                   1522                       # Packet count per connected master and slave (bytes)
system.membus.pkt_size_system.l3cache.mem_side::system.mem_ctrl.port        48704                       # Cumulative packet size per connected master and slave (bytes)
system.membus.pkt_size_system.l3cache.mem_side::total        48704                       # Cumulative packet size per connected master and slave (bytes)
system.membus.pkt_size::total                   48704                       # Cumulative packet size per connected master and slave (bytes)
system.membus.snoops                                0                       # Total snoops (count)
system.membus.snoopTraffic                          0                       # Total snoop traffic (bytes)
system.membus.snoop_fanout::samples               761                       # Request fanout histogram
system.membus.snoop_fanout::mean                    0                       # Request fanout histogram
system.membus.snoop_fanout::stdev                   0                       # Request fanout histogram
system.membus.snoop_fanout::underflows              0      0.00%      0.00% # Request fanout histogram
system.membus.snoop_fanout::0                     761    100.00%    100.00% # Request fanout histogram
system.membus.snoop_fanout::1                       0      0.00%    100.00% # Request fanout histogram
system.membus.snoop_fanout::overflows               0      0.00%    100.00% # Request fanout histogram
system.membus.snoop_fanout::min_value               0                       # Request fanout histogram
system.membus.snoop_fanout::max_value               0                       # Request fanout histogram
system.membus.snoop_fanout::total                 761                       # Request fanout histogram
system.membus.reqLayer0.occupancy              380500                       # Layer occupancy (ticks)
system.membus.reqLayer0.utilization               0.8                       # Layer utilization (%)
system.membus.respLayer0.occupancy            2066250                       # Layer occupancy (ticks)
system.membus.respLayer0.utilization              4.5                       # Layer utilization (%)

---------- End Simulation Statistics   ----------