
---------- Begin Simulation Statistics ----------
sim_seconds                                  0.012091                       # Number of seconds simulated
sim_ticks                                 12091100500                       # Number of ticks simulated
final_tick                                12091100500                       # Number of ticks from beginning of simulation (restored from checkpoints and never reset)
sim_freq                                 1000000000000                       # Frequency of simulated ticks
host_inst_rate                                 289136                       # Simulator instruction rate (inst/s)
host_op_rate                                   496513                       # Simulator op (including micro ops) rate (op/s)
host_tick_rate                              185598247                       # Simulator tick rate (ticks/s)
host_mem_usage                                 660008                       # Number of bytes of host memory used
host_seconds                                    65.15                       # Real time elapsed on the host
sim_insts                                    18836239                       # Number of instructions simulated
sim_ops                                      32346156                       # Number of ops (including micro ops) simulated
system.clk_domain.voltage_domain.voltage            1                       # Voltage in Volts
system.clk_domain.clock                           500                       # Clock period in ticks
system.mem_ctrl.pwrStateResidencyTicks::UNDEFINED  12091100500                       # Cumulative time (in ticks) in various power states
system.mem_ctrl.bytes_read::.cpu.inst           50688                       # Number of bytes read from this memory
system.mem_ctrl.bytes_read::.cpu.data          106752                       # Number of bytes read from this memory
system.mem_ctrl.bytes_read::total              157440                       # Number of bytes read from this memory
system.mem_ctrl.bytes_inst_read::.cpu.inst        50688                       # Number of instructions bytes read from this memory
system.mem_ctrl.bytes_inst_read::total          50688                       # Number of instructions bytes read from this memory
system.mem_ctrl.num_reads::.cpu.inst              792                       # Number of read requests responded to by this memory
system.mem_ctrl.num_reads::.cpu.data             1668                       # Number of read requests responded to by this memory
system.mem_ctrl.num_reads::total                 2460                       # Number of read requests responded to by this memory
system.mem_ctrl.bw_read::.cpu.inst            4192174                       # Total read bandwidth from this memory (bytes/s)
system.mem_ctrl.bw_read::.cpu.data            8828973                       # Total read bandwidth from this memory (bytes/s)
system.mem_ctrl.bw_read::total               13021147                       # Total read bandwidth from this memory (bytes/s)
system.mem_ctrl.bw_inst_read::.cpu.inst       4192174                       # Instruction read bandwidth from this memory (bytes/s)
system.mem_ctrl.bw_inst_read::total           4192174                       # Instruction read bandwidth from this memory (bytes/s)
system.mem_ctrl.bw_total::.cpu.inst           4192174                       # Total bandwidth to/from this memory (bytes/s)
system.mem_ctrl.bw_total::.cpu.data           8828973                       # Total bandwidth to/from this memory (bytes/s)
system.mem_ctrl.bw_total::total              13021147                       # Total bandwidth to/from this memory (bytes/s)
system.mem_ctrl.avgPriority_.cpu.inst::samples       792.00                       # Average QoS priority value for accepted requests
system.mem_ctrl.avgPriority_.cpu.data::samples      1668.00                       # Average QoS priority value for accepted requests
system.mem_ctrl.priorityMinLatency       0.000000018750                       # per QoS priority minimum request to response latency (s)
system.mem_ctrl.priorityMaxLatency       0.000001099750                       # per QoS priority maximum request to response latency (s)
system.mem_ctrl.numReadWriteTurnArounds             0                       # Number of turnarounds from READ to WRITE
system.mem_ctrl.numWriteReadTurnArounds             0                       # Number of turnarounds from WRITE to READ
system.mem_ctrl.numStayReadState                 5631                       # Number of times bus staying in READ state
system.mem_ctrl.numStayWriteState                   0                       # Number of times bus staying in WRITE state
system.mem_ctrl.readReqs                         2460                       # Number of read requests accepted
system.mem_ctrl.writeReqs                           0                       # Number of write requests accepted
system.mem_ctrl.readBursts                       2460                       # Number of DRAM read bursts, including those serviced by the write queue
system.mem_ctrl.writeBursts                         0                       # Number of DRAM write bursts, including those merged in the write queue
system.mem_ctrl.bytesReadDRAM                  157440                       # Total number of bytes read from DRAM
system.mem_ctrl.bytesReadWrQ                        0                       # Total number of bytes read from write queue
system.mem_ctrl.bytesWritten                        0                       # Total number of bytes written to DRAM
system.mem_ctrl.bytesReadSys                   157440                       # Total read bytes from the system interface side
system.mem_ctrl.bytesWrittenSys                     0                       # Total written bytes from the system interface side
system.mem_ctrl.servicedByWrQ                       0                       # Number of DRAM read bursts serviced by the write queue
system.mem_ctrl.mergedWrBursts                      0                       # Number of DRAM write bursts merged with an existing one
system.mem_ctrl.neitherReadNorWriteReqs             0                       # Number of requests that are neither read nor write
system.mem_ctrl.perBankRdBursts::0                276                       # Per bank write bursts
system.mem_ctrl.perBankRdBursts::1                152                       # Per bank write bursts
system.mem_ctrl.perBankRdBursts::2                169                       # Per bank write bursts
system.mem_ctrl.perBankRdBursts::3                143                       # Per bank write bursts
system.mem_ctrl.perBankRdBursts::4                158                       # Per bank write bursts
system.mem_ctrl.perBankRdBursts::5                141                       # Per bank write bursts
system.mem_ctrl.perBankRdBursts::6                200                       # Per bank write bursts
system.mem_ctrl.perBankRdBursts::7                222                       # Per bank write bursts
system.mem_ctrl.perBankRdBursts::8                159                       # Per bank write bursts
system.mem_ctrl.perBankRdBursts::9                179                       # Per bank write bursts
system.mem_ctrl.perBankRdBursts::10               158                       # Per bank write bursts
system.mem_ctrl.perBankRdBursts::11               102                       # Per bank write bursts
system.mem_ctrl.perBankRdBursts::12                66                       # Per bank write bursts
system.mem_ctrl.perBankRdBursts::13                72                       # Per bank write bursts
system.mem_ctrl.perBankRdBursts::14               121                       # Per bank write bursts
system.mem_ctrl.perBankRdBursts::15               142                       # Per bank write bursts
system.mem_ctrl.perBankWrBursts::0                  0                       # Per bank write bursts
system.mem_ctrl.perBankWrBursts::1                  0                       # Per bank write bursts
system.mem_ctrl.perBankWrBursts::2                  0                       # Per bank write bursts
system.mem_ctrl.perBankWrBursts::3                  0                       # Per bank write bursts
system.mem_ctrl.perBankWrBursts::4                  0                       # Per bank write bursts
system.mem_ctrl.perBankWrBursts::5                  0                       # Per bank write bursts
system.mem_ctrl.perBankWrBursts::6                  0                       # Per bank write bursts
system.mem_ctrl.perBankWrBursts::7                  0                       # Per bank write bursts
system.mem_ctrl.perBankWrBursts::8                  0                       # Per bank write bursts
system.mem_ctrl.perBankWrBursts::9                  0                       # Per bank write bursts
system.mem_ctrl.perBankWrBursts::10                 0                       # Per bank write bursts
system.mem_ctrl.perBankWrBursts::11                 0                       # Per bank write bursts
system.mem_ctrl.perBankWrBursts::12                 0                       # Per bank write bursts
system.mem_ctrl.perBankWrBursts::13                 0                       # Per bank write bursts
system.mem_ctrl.perBankWrBursts::14                 0                       # Per bank write bursts
system.mem_ctrl.perBankWrBursts::15                 0                       # Per bank write bursts
system.mem_ctrl.numRdRetry                          0                       # Number of times read queue was full causing retry
system.mem_ctrl.numWrRetry                          0                       # Number of times write queue was full causing retry
system.mem_ctrl.totGap                    12091009000                       # Total gap between requests
system.mem_ctrl.readPktSize::0                      0                       # Read request sizes (log2)
system.mem_ctrl.readPktSize::1                      0                       # Read request sizes (log2)
system.mem_ctrl.readPktSize::2                      0                       # Read request sizes (log2)
system.mem_ctrl.readPktSize::3                      0                       # Read request sizes (log2)
system.mem_ctrl.readPktSize::4                      0                       # Read request sizes (log2)
system.mem_ctrl.readPktSize::5                      0                       # Read request sizes (log2)
system.mem_ctrl.readPktSize::6                   2460                       # Read request sizes (log2)
system.mem_ctrl.writePktSize::0                     0                       # Write request sizes (log2)
system.mem_ctrl.writePktSize::1                     0                       # Write request sizes (log2)
system.mem_ctrl.writePktSize::2                     0                       # Write request sizes (log2)
system.mem_ctrl.writePktSize::3                     0                       # Write request sizes (log2)
system.mem_ctrl.writePktSize::4                     0                       # Write request sizes (log2)
system.mem_ctrl.writePktSize::5                     0                       # Write request sizes (log2)
system.mem_ctrl.writePktSize::6                     0                       # Write request sizes (log2)
system.mem_ctrl.rdQLenPdf::0                     2095                       # What read queue length does an incoming req see
system.mem_ctrl.rdQLenPdf::1                      289                       # What read queue length does an incoming req see
system.mem_ctrl.rdQLenPdf::2                       58                       # What read queue length does an incoming req see
system.mem_ctrl.rdQLenPdf::3                       15                       # What read queue length does an incoming req see
system.mem_ctrl.rdQLenPdf::4                        3                       # What read queue length does an incoming req see
system.mem_ctrl.rdQLenPdf::5                        0                       # What read queue length does an incoming req see
system.mem_ctrl.rdQLenPdf::6                        0                       # What read queue length does an incoming req see
system.mem_ctrl.rdQLenPdf::7                        0                       # What read queue length does an incoming req see
system.mem_ctrl.rdQLenPdf::8                        0                       # What read queue length does an incoming req see
system.mem_ctrl.rdQLenPdf::9                        0                       # What read queue length does an incoming req see
system.mem_ctrl.rdQLenPdf::10                       0                       # What read queue length does an incoming req see
system.mem_ctrl.rdQLenPdf::11                       0                       # What read queue length does an incoming req see
system.mem_ctrl.rdQLenPdf::12                       0                       # What read queue length does an incoming req see
system.mem_ctrl.rdQLenPdf::13                       0                       # What read queue length does an incoming req see
system.mem_ctrl.rdQLenPdf::14                       0                       # What read queue length does an incoming req see
system.mem_ctrl.rdQLenPdf::15                       0                       # What read queue length does an incoming req see
system.mem_ctrl.rdQLenPdf::16                       0                       # What read queue length does an incoming req see
system.mem_ctrl.rdQLenPdf::17                       0                       # What read queue length does an incoming req see
system.mem_ctrl.rdQLenPdf::18                       0                       # What read queue length does an incoming req see
system.mem_ctrl.rdQLenPdf::19                       0                       # What read queue length does an incoming req see
system.mem_ctrl.rdQLenPdf::20                       0                       # What read queue length does an incoming req see
system.mem_ctrl.rdQLenPdf::21                       0                       # What read queue length does an incoming req see
system.mem_ctrl.rdQLenPdf::22                       0                       # What read queue length does an incoming req see
system.mem_ctrl.rdQLenPdf::23                       0                       # What read queue length does an incoming req see
system.mem_ctrl.rdQLenPdf::24                       0                       # What read queue length does an incoming req see
system.mem_ctrl.rdQLenPdf::25                       0                       # What read queue length does an incoming req see
system.mem_ctrl.rdQLenPdf::26                       0                       # What read queue length does an incoming req see
system.mem_ctrl.rdQLenPdf::27                       0                       # What read queue length does an incoming req see
system.mem_ctrl.rdQLenPdf::28                       0                       # What read queue length does an incoming req see
system.mem_ctrl.rdQLenPdf::29                       0                       # What read queue length does an incoming req see
system.mem_ctrl.rdQLenPdf::30                       0                       # What read queue length does an incoming req see
system.mem_ctrl.rdQLenPdf::31                       0                       # What read queue length does an incoming req see
system.mem_ctrl.wrQLenPdf::0                        0                       # What write queue length does an incoming req see
system.mem_ctrl.wrQLenPdf::1                        0                       # What write queue length does an incoming req see
system.mem_ctrl.wrQLenPdf::2                        0                       # What write queue length does an incoming req see
system.mem_ctrl.wrQLenPdf::3                        0                       # What write queue length does an incoming req see
system.mem_ctrl.wrQLenPdf::4                        0                       # What write queue length does an incoming req see
system.mem_ctrl.wrQLenPdf::5                        0                       # What write queue length does an incoming req see
system.mem_ctrl.wrQLenPdf::6                        0                       # What write queue length does an incoming req see
system.mem_ctrl.wrQLenPdf::7                        0                       # What write queue length does an incoming req see
system.mem_ctrl.wrQLenPdf::8                        0                       # What write queue length does an incoming req see
system.mem_ctrl.wrQLenPdf::9                        0                       # What write queue length does an incoming req see
system.mem_ctrl.wrQLenPdf::10                       0                       # What write queue length does an incoming req see
system.mem_ctrl.wrQLenPdf::11                       0                       # What write queue length does an incoming req see
system.mem_ctrl.wrQLenPdf::12                       0                       # What write queue length does an incoming req see
system.mem_ctrl.wrQLenPdf::13                       0                       # What write queue length does an incoming req see
system.mem_ctrl.wrQLenPdf::14                       0                       # What write queue length does an incoming req see
system.mem_ctrl.wrQLenPdf::15                       0                       # What write queue length does an incoming req see
system.mem_ctrl.wrQLenPdf::16                       0                       # What write queue length does an incoming req see
system.mem_ctrl.wrQLenPdf::17                       0                       # What write queue length does an incoming req see
system.mem_ctrl.wrQLenPdf::18                       0                       # What write queue length does an incoming req see
system.mem_ctrl.wrQLenPdf::19                       0                       # What write queue length does an incoming req see
system.mem_ctrl.wrQLenPdf::20                       0                       # What write queue length does an incoming req see
system.mem_ctrl.wrQLenPdf::21                       0                       # What write queue length does an incoming req see
system.mem_ctrl.wrQLenPdf::22                       0                       # What write queue length does an incoming req see
system.mem_ctrl.wrQLenPdf::23                       0                       # What write queue length does an incoming req see
system.mem_ctrl.wrQLenPdf::24                       0                       # What write queue length does an incoming req see
system.mem_ctrl.wrQLenPdf::25                       0                       # What write queue length does an incoming req see
system.mem_ctrl.wrQLenPdf::26                       0                       # What write queue length does an incoming req see
system.mem_ctrl.wrQLenPdf::27                       0                       # What write queue length does an incoming req see
system.mem_ctrl.wrQLenPdf::28                       0                       # What write queue length does an incoming req see
system.mem_ctrl.wrQLenPdf::29                       0                       # What write queue length does an incoming req see
system.mem_ctrl.wrQLenPdf::30                       0                       # What write queue length does an incoming req see
system.mem_ctrl.wrQLenPdf::31                       0                       # What write queue length does an incoming req see
system.mem_ctrl.wrQLenPdf::32                       0                       # What write queue length does an incoming req see
system.mem_ctrl.wrQLenPdf::33                       0                       # What write queue length does an incoming req see
system.mem_ctrl.wrQLenPdf::34                       0                       # What write queue length does an incoming req see
system.mem_ctrl.wrQLenPdf::35                       0                       # What write queue length does an incoming req see
system.mem_ctrl.wrQLenPdf::36                       0                       # What write queue length does an incoming req see
system.mem_ctrl.wrQLenPdf::37                       0                       # What write queue length does an incoming req see
system.mem_ctrl.wrQLenPdf::38                       0                       # What write queue length does an incoming req see
system.mem_ctrl.wrQLenPdf::39                       0                       # What write queue length does an incoming req see
system.mem_ctrl.wrQLenPdf::40                       0                       # What write queue length does an incoming req see
system.mem_ctrl.wrQLenPdf::41                       0                       # What write queue length does an incoming req see
system.mem_ctrl.wrQLenPdf::42                       0                       # What write queue length does an incoming req see
system.mem_ctrl.wrQLenPdf::43                       0                       # What write queue length does an incoming req see
system.mem_ctrl.wrQLenPdf::44                       0                       # What write queue length does an incoming req see
system.mem_ctrl.wrQLenPdf::45                       0                       # What write queue length does an incoming req see
system.mem_ctrl.wrQLenPdf::46                       0                       # What write queue length does an incoming req see
system.mem_ctrl.wrQLenPdf::47                       0                       # What write queue length does an incoming req see
system.mem_ctrl.wrQLenPdf::48                       0                       # What write queue length does an incoming req see
system.mem_ctrl.wrQLenPdf::49                       0                       # What write queue length does an incoming req see
system.mem_ctrl.wrQLenPdf::50                       0                       # What write queue length does an incoming req see
system.mem_ctrl.wrQLenPdf::51                       0                       # What write queue length does an incoming req see
system.mem_ctrl.wrQLenPdf::52                       0                       # What write queue length does an incoming req see
system.mem_ctrl.wrQLenPdf::53                       0                       # What write queue length does an incoming req see
system.mem_ctrl.wrQLenPdf::54                       0                       # What write queue length does an incoming req see
system.mem_ctrl.wrQLenPdf::55                       0                       # What write queue length does an incoming req see
system.mem_ctrl.wrQLenPdf::56                       0                       # What write queue length does an incoming req see
system.mem_ctrl.wrQLenPdf::57                       0                       # What write queue length does an incoming req see
system.mem_ctrl.wrQLenPdf::58                       0                       # What write queue length does an incoming req see
system.mem_ctrl.wrQLenPdf::59                       0                       # What write queue length does an incoming req see
system.mem_ctrl.wrQLenPdf::60                       0                       # What write queue length does an incoming req see
system.mem_ctrl.wrQLenPdf::61                       0                       # What write queue length does an incoming req see
system.mem_ctrl.wrQLenPdf::62                       0                       # What write queue length does an incoming req see
system.mem_ctrl.wrQLenPdf::63                       0                       # What write queue length does an incoming req see
system.mem_ctrl.bytesPerActivate::samples          932                       # Bytes accessed per row activation
system.mem_ctrl.bytesPerActivate::mean     166.866953                       # Bytes accessed per row activation
system.mem_ctrl.bytesPerActivate::gmean    101.437943                       # Bytes accessed per row activation
system.mem_ctrl.bytesPerActivate::stdev    241.353477                       # Bytes accessed per row activation
system.mem_ctrl.bytesPerActivate::0-127           647     69.42%     69.42% # Bytes accessed per row activation
system.mem_ctrl.bytesPerActivate::128-255          142     15.24%     84.66% # Bytes accessed per row activation
system.mem_ctrl.bytesPerActivate::256-383           38      4.08%     88.73% # Bytes accessed per row activation
system.mem_ctrl.bytesPerActivate::384-511           19      2.04%     90.77% # Bytes accessed per row activation
system.mem_ctrl.bytesPerActivate::512-639           17      1.82%     92.60% # Bytes accessed per row activation
system.mem_ctrl.bytesPerActivate::640-767            4      0.43%     93.03% # Bytes accessed per row activation
system.mem_ctrl.bytesPerActivate::768-895           14      1.50%     94.53% # Bytes accessed per row activation
system.mem_ctrl.bytesPerActivate::896-1023            4      0.43%     94.96% # Bytes accessed per row activation
system.mem_ctrl.bytesPerActivate::1024-1151           47      5.04%    100.00% # Bytes accessed per row activation
system.mem_ctrl.bytesPerActivate::total           932                       # Bytes accessed per row activation
system.mem_ctrl.masterReadBytes::.cpu.inst        50688                       # Per-master bytes read from memory
system.mem_ctrl.masterReadBytes::.cpu.data       106752                       # Per-master bytes read from memory
system.mem_ctrl.masterReadRate::.cpu.inst 4192174.235918392893                       # Per-master bytes read from memory rate (Bytes/sec)
system.mem_ctrl.masterReadRate::.cpu.data 8828973.012009948492                       # Per-master bytes read from memory rate (Bytes/sec)
system.mem_ctrl.masterReadAccesses::.cpu.inst          792                       # Per-master read serviced memory accesses
system.mem_ctrl.masterReadAccesses::.cpu.data         1668                       # Per-master read serviced memory accesses
system.mem_ctrl.masterReadTotalLat::.cpu.inst     39449000                       # Per-master read total memory access latency
system.mem_ctrl.masterReadTotalLat::.cpu.data    101728500                       # Per-master read total memory access latency
system.mem_ctrl.masterReadAvgLat::.cpu.inst     49809.34                       # Per-master read average memory access latency
system.mem_ctrl.masterReadAvgLat::.cpu.data     60988.31                       # Per-master read average memory access latency
system.mem_ctrl.totQLat                      95052500                       # Total ticks spent queuing
system.mem_ctrl.totMemAccLat                141177500                       # Total ticks spent from burst creation until serviced by the DRAM
system.mem_ctrl.totBusLat                    12300000                       # Total ticks spent in databus transfers
system.mem_ctrl.avgQLat                      38639.23                       # Average queueing delay per DRAM burst
system.mem_ctrl.avgBusLat                     5000.00                       # Average bus latency per DRAM burst
system.mem_ctrl.avgMemAccLat                 57389.23                       # Average memory access latency per DRAM burst
system.mem_ctrl.avgRdBW                         13.02                       # Average DRAM read bandwidth in MiByte/s
system.mem_ctrl.avgWrBW                          0.00                       # Average achieved write bandwidth in MiByte/s
system.mem_ctrl.avgRdBWSys                      13.02                       # Average system read bandwidth in MiByte/s
system.mem_ctrl.avgWrBWSys                       0.00                       # Average system write bandwidth in MiByte/s
system.mem_ctrl.peakBW                       12800.00                       # Theoretical peak bandwidth in MiByte/s
system.mem_ctrl.busUtil                          0.10                       # Data bus utilization in percentage
system.mem_ctrl.busUtilRead                      0.10                       # Data bus utilization in percentage for reads
system.mem_ctrl.busUtilWrite                     0.00                       # Data bus utilization in percentage for writes
system.mem_ctrl.avgRdQLen                        1.05                       # Average read queue length when enqueuing
system.mem_ctrl.avgWrQLen                        0.00                       # Average write queue length when enqueuing
system.mem_ctrl.readRowHits                      1521                       # Number of row buffer hits during reads
system.mem_ctrl.writeRowHits                        0                       # Number of row buffer hits during writes
system.mem_ctrl.readRowHitRate                  61.83                       # Row buffer hit rate for reads
system.mem_ctrl.writeRowHitRate                   nan                       # Row buffer hit rate for writes
system.mem_ctrl.avgGap                     4915044.31                       # Average gap between requests
system.mem_ctrl.pageHitRate                     61.83                       # Row buffer hit rate, read and write combined
system.mem_ctrl_0.actEnergy                   5112240                       # Energy for activate commands per rank (pJ)
system.mem_ctrl_0.preEnergy                   2698245                       # Energy for precharge commands per rank (pJ)
system.mem_ctrl_0.readEnergy                 10431540                       # Energy for read commands per rank (pJ)
system.mem_ctrl_0.writeEnergy                       0                       # Energy for write commands per rank (pJ)
system.mem_ctrl_0.refreshEnergy          394598880.000000                       # Energy for refresh commands per rank (pJ)
system.mem_ctrl_0.actBackEnergy              92443740                       # Energy for active background per rank (pJ)
system.mem_ctrl_0.preBackEnergy               9584160                       # Energy for precharge background per rank (pJ)
system.mem_ctrl_0.actPowerDownEnergy       1471750830                       # Energy for active power-down per rank (pJ)
system.mem_ctrl_0.prePowerDownEnergy        595844640                       # Energy for precharge power-down per rank (pJ)
system.mem_ctrl_0.selfRefreshEnergy        1706837880                       # Energy for self refresh per rank (pJ)
system.mem_ctrl_0.totalEnergy              4289302155                       # Total energy per rank (pJ)
system.mem_ctrl_0.averagePower             354.748698                       # Core power per rank (mW)
system.mem_ctrl_0.totalIdleTime           11862855500                       # Total Idle time Per DRAM Rank
system.mem_ctrl_0.memoryStateTime::IDLE       7182500                       # Time in different power states
system.mem_ctrl_0.memoryStateTime::REF      166920000                       # Time in different power states
system.mem_ctrl_0.memoryStateTime::SREF    7084208500                       # Time in different power states
system.mem_ctrl_0.memoryStateTime::PRE_PDN   1551466500                       # Time in different power states
system.mem_ctrl_0.memoryStateTime::ACT       54094250                       # Time in different power states
system.mem_ctrl_0.memoryStateTime::ACT_PDN   3227228750                       # Time in different power states
system.mem_ctrl_1.actEnergy                   1592220                       # Energy for activate commands per rank (pJ)
system.mem_ctrl_1.preEnergy                    838695                       # Energy for precharge commands per rank (pJ)
system.mem_ctrl_1.readEnergy                  7132860                       # Energy for read commands per rank (pJ)
system.mem_ctrl_1.writeEnergy                       0                       # Energy for write commands per rank (pJ)
system.mem_ctrl_1.refreshEnergy          58390800.000000                       # Energy for refresh commands per rank (pJ)
system.mem_ctrl_1.actBackEnergy              22437480                       # Energy for active background per rank (pJ)
system.mem_ctrl_1.preBackEnergy               3375840                       # Energy for precharge background per rank (pJ)
system.mem_ctrl_1.actPowerDownEnergy        209683620                       # Energy for active power-down per rank (pJ)
system.mem_ctrl_1.prePowerDownEnergy         88616640                       # Energy for precharge power-down per rank (pJ)
system.mem_ctrl_1.selfRefreshEnergy        2733244800                       # Energy for self refresh per rank (pJ)
system.mem_ctrl_1.totalEnergy              3125312955                       # Total energy per rank (pJ)
system.mem_ctrl_1.averagePower             258.480438                       # Core power per rank (mW)
system.mem_ctrl_1.totalIdleTime           12032887500                       # Total Idle time Per DRAM Rank
system.mem_ctrl_1.memoryStateTime::IDLE       6148500                       # Time in different power states
system.mem_ctrl_1.memoryStateTime::REF       24700000                       # Time in different power states
system.mem_ctrl_1.memoryStateTime::SREF   11342500250                       # Time in different power states
system.mem_ctrl_1.memoryStateTime::PRE_PDN    230767500                       # Time in different power states
system.mem_ctrl_1.memoryStateTime::ACT       27128250                       # Time in different power states
system.mem_ctrl_1.memoryStateTime::ACT_PDN    459856000                       # Time in different power states
system.pwrStateResidencyTicks::UNDEFINED  12091100500                       # Cumulative time (in ticks) in various power states
system.cpu.branchPred.lookups                 4234977                       # Number of BP lookups
system.cpu.branchPred.condPredicted           4234977                       # Number of conditional branches predicted
system.cpu.branchPred.condIncorrect            222643                       # Number of conditional branches incorrect
system.cpu.branchPred.BTBLookups              3602709                       # Number of BTB lookups
system.cpu.branchPred.BTBHits                       0                       # Number of BTB hits
system.cpu.branchPred.BTBCorrect                    0                       # Number of correct BTB predictions (this stat may not work properly.
system.cpu.branchPred.BTBHitPct              0.000000                       # BTB Hit Percentage
system.cpu.branchPred.usedRAS                  181136                       # Number of times the RAS was used to get a target.
system.cpu.branchPred.RASInCorrect              21922                       # Number of incorrect RAS predictions.
system.cpu.branchPred.indirectLookups         3602709                       # Number of indirect predictor lookups.
system.cpu.branchPred.indirectHits            1684601                       # Number of indirect target hits.
system.cpu.branchPred.indirectMisses          1918108                       # Number of indirect misses.
system.cpu.branchPredindirectMispredicted       105047                       # Number of mispredicted indirect branches.
system.cpu.dtb.walker.pwrStateResidencyTicks::UNDEFINED  12091100500                       # Cumulative time (in ticks) in various power states
system.cpu.dtb.rdAccesses                     7204854                       # TLB accesses on read requests
system.cpu.dtb.wrAccesses                     2645756                       # TLB accesses on write requests
system.cpu.dtb.rdMisses                          2123                       # TLB misses on read requests
system.cpu.dtb.wrMisses                            58                       # TLB misses on write requests
system.cpu.apic_clk_domain.clock                 8000                       # Clock period in ticks
system.cpu.interrupts.pwrStateResidencyTicks::UNDEFINED  12091100500                       # Cumulative time (in ticks) in various power states
system.cpu.itb.walker.pwrStateResidencyTicks::UNDEFINED  12091100500                       # Cumulative time (in ticks) in various power states
system.cpu.itb.rdAccesses                           0                       # TLB accesses on read requests
system.cpu.itb.wrAccesses                     3388776                       # TLB accesses on write requests
system.cpu.itb.rdMisses                             0                       # TLB misses on read requests
system.cpu.itb.wrMisses                           150                       # TLB misses on write requests
system.cpu.workload.numSyscalls                    23                       # Number of system calls
system.cpu.pwrStateResidencyTicks::ON     12091100500                       # Cumulative time (in ticks) in various power states
system.cpu.numCycles                         24182202                       # number of cpu cycles simulated
system.cpu.numWorkItemsStarted                      0                       # number of work items this cpu started
system.cpu.numWorkItemsCompleted                    0                       # number of work items this cpu completed
system.cpu.fetch.icacheStallCycles             218877                       # Number of cycles fetch is stalled on an Icache miss
system.cpu.fetch.Insts                       25346823                       # Number of instructions fetch has processed
system.cpu.fetch.Branches                     4234977                       # Number of branches that fetch encountered
system.cpu.fetch.predictedBranches            1865737                       # Number of branches that fetch has predicted taken
system.cpu.fetch.Cycles                      23696055                       # Number of cycles fetch has run and was not squashing or blocked
system.cpu.fetch.SquashCycles                  446442                       # Number of cycles fetch has spent squashing
system.cpu.fetch.MiscStallCycles                   65                       # Number of cycles fetch has spent waiting on interrupts, or bad addresses, or out of MSHRs
system.cpu.fetch.PendingTrapStallCycles           896                       # Number of stall cycles due to pending traps
system.cpu.fetch.PendingQuiesceStallCycles           19                       # Number of stall cycles due to pending quiesce instructions
system.cpu.fetch.CacheLines                   3388684                       # Number of cache lines fetched
system.cpu.fetch.IcacheSquashes                   495                       # Number of outstanding Icache misses that were squashed
system.cpu.fetch.rateDist::samples           24139133                       # Number of instructions fetched each cycle (Total)
system.cpu.fetch.rateDist::mean              1.766279                       # Number of instructions fetched each cycle (Total)
system.cpu.fetch.rateDist::stdev             0.597089                       # Number of instructions fetched each cycle (Total)
system.cpu.fetch.rateDist::underflows               0      0.00%      0.00% # Number of instructions fetched each cycle (Total)
system.cpu.fetch.rateDist::0                  2141383      8.87%      8.87% # Number of instructions fetched each cycle (Total)
system.cpu.fetch.rateDist::1                  1359045      5.63%     14.50% # Number of instructions fetched each cycle (Total)
system.cpu.fetch.rateDist::2                 20638705     85.50%    100.00% # Number of instructions fetched each cycle (Total)
system.cpu.fetch.rateDist::overflows                0      0.00%    100.00% # Number of instructions fetched each cycle (Total)
system.cpu.fetch.rateDist::min_value                0                       # Number of instructions fetched each cycle (Total)
system.cpu.fetch.rateDist::max_value                2                       # Number of instructions fetched each cycle (Total)
system.cpu.fetch.rateDist::total             24139133                       # Number of instructions fetched each cycle (Total)
system.cpu.fetch.branchRate                  0.175128                       # Number of branch fetches per cycle
system.cpu.fetch.rate                        1.048160                       # Number of inst fetches per cycle
system.cpu.decode.IdleCycles                  1338331                       # Number of cycles decode is idle
system.cpu.decode.BlockedCycles               1789714                       # Number of cycles decode is blocked
system.cpu.decode.RunCycles                  19979097                       # Number of cycles decode is running
system.cpu.decode.UnblockCycles                808770                       # Number of cycles decode is unblocking
system.cpu.decode.SquashCycles                 223221                       # Number of cycles decode is squashing
system.cpu.decode.DecodedInsts               39932611                       # Number of instructions handled by decode
system.cpu.decode.SquashedInsts                783625                       # Number of squashed instructions handled by decode
system.cpu.rename.SquashCycles                 223221                       # Number of cycles rename is squashing
system.cpu.rename.IdleCycles                  2377781                       # Number of cycles rename is idle
system.cpu.rename.BlockCycles                  641116                       # Number of cycles rename is blocking
system.cpu.rename.serializeStallCycles           1705                       # count of cycles rename stalled for serializing inst
system.cpu.rename.RunCycles                  19710310                       # Number of cycles rename is running
system.cpu.rename.UnblockCycles               1185000                       # Number of cycles rename is unblocking
system.cpu.rename.RenamedInsts               39159839                       # Number of instructions processed by rename
system.cpu.rename.SquashedInsts                379459                       # Number of squashed instructions processed by rename
system.cpu.rename.ROBFullEvents                    29                       # Number of times rename has blocked due to ROB full
system.cpu.rename.IQFullEvents                 310305                       # Number of times rename has blocked due to IQ full
system.cpu.rename.LQFullEvents                 148802                       # Number of times rename has blocked due to LQ full
system.cpu.rename.SQFullEvents                 357494                       # Number of times rename has blocked due to SQ full
system.cpu.rename.FullRegisterEvents              291                       # Number of times there has been no free registers
system.cpu.rename.RenamedOperands            45012258                       # Number of destination operands rename has renamed
system.cpu.rename.RenameLookups              99211192                       # Number of register rename lookups that rename has made
system.cpu.rename.int_rename_lookups         61679499                       # Number of integer rename lookups
system.cpu.rename.fp_rename_lookups             44187                       # Number of floating rename lookups
system.cpu.rename.CommittedMaps              37258541                       # Number of HB maps that are committed
system.cpu.rename.UndoneMaps                  7753717                       # Number of HB maps that are undone due to squashing
system.cpu.rename.serializingInsts                 43                       # count of serializing insts renamed
system.cpu.rename.tempSerializingInsts             40                       # count of temporary serializing insts renamed
system.cpu.rename.skidInsts                   1218722                       # count of insts added to the skid buffer
system.cpu.memDep0.insertedLoads              8009140                       # Number of loads inserted to the mem dependence unit.
system.cpu.memDep0.insertedStores             2954944                       # Number of stores inserted to the mem dependence unit.
system.cpu.memDep0.conflictingLoads           1978250                       # Number of conflicting loads.
system.cpu.memDep0.conflictingStores           464251                       # Number of conflicting stores.
system.cpu.iq.iqInstsAdded                   38396665                       # Number of instructions added to the IQ (excludes non-spec)
system.cpu.iq.iqNonSpecInstsAdded                1202                       # Number of non-speculative instructions added to the IQ
system.cpu.iq.iqInstsIssued                  36012783                       # Number of instructions issued
system.cpu.iq.iqSquashedInstsIssued            187283                       # Number of squashed instructions issued
system.cpu.iq.iqSquashedInstsExamined         6051710                       # Number of squashed instructions iterated over during squash; mainly for profiling
system.cpu.iq.iqSquashedOperandsExamined      8425860                       # Number of squashed operands that are examined and possibly removed from graph
system.cpu.iq.iqSquashedNonSpecRemoved           1179                       # Number of squashed non-spec instructions that were removed
system.cpu.iq.issued_per_cycle::samples      24139133                       # Number of insts issued each cycle
system.cpu.iq.issued_per_cycle::mean         1.491884                       # Number of insts issued each cycle
system.cpu.iq.issued_per_cycle::stdev        0.729665                       # Number of insts issued each cycle
system.cpu.iq.issued_per_cycle::underflows            0      0.00%      0.00% # Number of insts issued each cycle
system.cpu.iq.issued_per_cycle::0             3409367     14.12%     14.12% # Number of insts issued each cycle
system.cpu.iq.issued_per_cycle::1             5446749     22.56%     36.69% # Number of insts issued each cycle
system.cpu.iq.issued_per_cycle::2            15283017     63.31%    100.00% # Number of insts issued each cycle
system.cpu.iq.issued_per_cycle::overflows            0      0.00%    100.00% # Number of insts issued each cycle
system.cpu.iq.issued_per_cycle::min_value            0                       # Number of insts issued each cycle
system.cpu.iq.issued_per_cycle::max_value            2                       # Number of insts issued each cycle
system.cpu.iq.issued_per_cycle::total        24139133                       # Number of insts issued each cycle
system.cpu.iq.fu_full::No_OpClass                   0      0.00%      0.00% # attempts to use FU when none available
system.cpu.iq.fu_full::IntAlu                       0      0.00%      0.00% # attempts to use FU when none available
system.cpu.iq.fu_full::IntMult                      0      0.00%      0.00% # attempts to use FU when none available
system.cpu.iq.fu_full::IntDiv                       0      0.00%      0.00% # attempts to use FU when none available
system.cpu.iq.fu_full::FloatAdd                     0      0.00%      0.00% # attempts to use FU when none available
system.cpu.iq.fu_full::FloatCmp                     0      0.00%      0.00% # attempts to use FU when none available
system.cpu.iq.fu_full::FloatCvt                     0      0.00%      0.00% # attempts to use FU when none available
system.cpu.iq.fu_full::FloatMult                    0      0.00%      0.00% # attempts to use FU when none available
system.cpu.iq.fu_full::FloatMultAcc                 0      0.00%      0.00% # attempts to use FU when none available
system.cpu.iq.fu_full::FloatDiv                     0      0.00%      0.00% # attempts to use FU when none available
system.cpu.iq.fu_full::FloatMisc                    0      0.00%      0.00% # attempts to use FU when none available
system.cpu.iq.fu_full::FloatSqrt                    0      0.00%      0.00% # attempts to use FU when none available
system.cpu.iq.fu_full::SimdAdd                    247      0.01%      0.01% # attempts to use FU when none available
system.cpu.iq.fu_full::SimdAddAcc                   0      0.00%      0.01% # attempts to use FU when none available
system.cpu.iq.fu_full::SimdAlu                     65      0.00%      0.01% # attempts to use FU when none available
system.cpu.iq.fu_full::SimdCmp                      0      0.00%      0.01% # attempts to use FU when none available
system.cpu.iq.fu_full::SimdCvt                     46      0.00%      0.01% # attempts to use FU when none available
system.cpu.iq.fu_full::SimdMisc                   138      0.01%      0.02% # attempts to use FU when none available
system.cpu.iq.fu_full::SimdMult                     0      0.00%      0.02% # attempts to use FU when none available
system.cpu.iq.fu_full::SimdMultAcc                  0      0.00%      0.02% # attempts to use FU when none available
system.cpu.iq.fu_full::SimdShift                  124      0.00%      0.02% # attempts to use FU when none available
system.cpu.iq.fu_full::SimdShiftAcc                 0      0.00%      0.02% # attempts to use FU when none available
system.cpu.iq.fu_full::SimdSqrt                     0      0.00%      0.02% # attempts to use FU when none available
system.cpu.iq.fu_full::SimdFloatAdd                 0      0.00%      0.02% # attempts to use FU when none available
system.cpu.iq.fu_full::SimdFloatAlu                 0      0.00%      0.02% # attempts to use FU when none available
system.cpu.iq.fu_full::SimdFloatCmp                 0      0.00%      0.02% # attempts to use FU when none available
system.cpu.iq.fu_full::SimdFloatCvt                 0      0.00%      0.02% # attempts to use FU when none available
system.cpu.iq.fu_full::SimdFloatDiv                 0      0.00%      0.02% # attempts to use FU when none available
system.cpu.iq.fu_full::SimdFloatMisc                0      0.00%      0.02% # attempts to use FU when none available
system.cpu.iq.fu_full::SimdFloatMult                0      0.00%      0.02% # attempts to use FU when none available
system.cpu.iq.fu_full::SimdFloatMultAcc             0      0.00%      0.02% # attempts to use FU when none available
system.cpu.iq.fu_full::SimdFloatSqrt                0      0.00%      0.02% # attempts to use FU when none available
system.cpu.iq.fu_full::SimdAes                      0      0.00%      0.02% # attempts to use FU when none available
system.cpu.iq.fu_full::SimdAesMix                   0      0.00%      0.02% # attempts to use FU when none available
system.cpu.iq.fu_full::SimdSha1Hash                 0      0.00%      0.02% # attempts to use FU when none available
system.cpu.iq.fu_full::SimdSha1Hash2                0      0.00%      0.02% # attempts to use FU when none available
system.cpu.iq.fu_full::SimdSha256Hash               0      0.00%      0.02% # attempts to use FU when none available
system.cpu.iq.fu_full::SimdSha256Hash2              0      0.00%      0.02% # attempts to use FU when none available
system.cpu.iq.fu_full::SimdShaSigma2                0      0.00%      0.02% # attempts to use FU when none available
system.cpu.iq.fu_full::SimdShaSigma3                0      0.00%      0.02% # attempts to use FU when none available
system.cpu.iq.fu_full::MemRead                2209328     85.53%     85.56% # attempts to use FU when none available
system.cpu.iq.fu_full::MemWrite                373100     14.44%    100.00% # attempts to use FU when none available
system.cpu.iq.fu_full::FloatMemRead                 0      0.00%    100.00% # attempts to use FU when none available
system.cpu.iq.fu_full::FloatMemWrite                0      0.00%    100.00% # attempts to use FU when none available
system.cpu.iq.fu_full::IprAccess                    0      0.00%    100.00% # attempts to use FU when none available
system.cpu.iq.fu_full::InstPrefetch                 0      0.00%    100.00% # attempts to use FU when none available
system.cpu.iq.FU_type_0::No_OpClass             19678      0.05%      0.05% # Type of FU issued
system.cpu.iq.FU_type_0::IntAlu              25891524     71.90%     71.95% # Type of FU issued
system.cpu.iq.FU_type_0::IntMult                58962      0.16%     72.11% # Type of FU issued
system.cpu.iq.FU_type_0::IntDiv                    31      0.00%     72.11% # Type of FU issued
system.cpu.iq.FU_type_0::FloatAdd               10014      0.03%     72.14% # Type of FU issued
system.cpu.iq.FU_type_0::FloatCmp                   0      0.00%     72.14% # Type of FU issued
system.cpu.iq.FU_type_0::FloatCvt                   0      0.00%     72.14% # Type of FU issued
system.cpu.iq.FU_type_0::FloatMult                  0      0.00%     72.14% # Type of FU issued
system.cpu.iq.FU_type_0::FloatMultAcc               0      0.00%     72.14% # Type of FU issued
system.cpu.iq.FU_type_0::FloatDiv                   0      0.00%     72.14% # Type of FU issued
system.cpu.iq.FU_type_0::FloatMisc                  0      0.00%     72.14% # Type of FU issued
system.cpu.iq.FU_type_0::FloatSqrt                  0      0.00%     72.14% # Type of FU issued
system.cpu.iq.FU_type_0::SimdAdd                  375      0.00%     72.14% # Type of FU issued
system.cpu.iq.FU_type_0::SimdAddAcc                 0      0.00%     72.14% # Type of FU issued
system.cpu.iq.FU_type_0::SimdAlu                  103      0.00%     72.14% # Type of FU issued
system.cpu.iq.FU_type_0::SimdCmp                    0      0.00%     72.14% # Type of FU issued
system.cpu.iq.FU_type_0::SimdCvt                  149      0.00%     72.14% # Type of FU issued
system.cpu.iq.FU_type_0::SimdMisc                 258      0.00%     72.14% # Type of FU issued
system.cpu.iq.FU_type_0::SimdMult                   0      0.00%     72.14% # Type of FU issued
system.cpu.iq.FU_type_0::SimdMultAcc                0      0.00%     72.14% # Type of FU issued
system.cpu.iq.FU_type_0::SimdShift                186      0.00%     72.14% # Type of FU issued
system.cpu.iq.FU_type_0::SimdShiftAcc               0      0.00%     72.14% # Type of FU issued
system.cpu.iq.FU_type_0::SimdSqrt                   0      0.00%     72.14% # Type of FU issued
system.cpu.iq.FU_type_0::SimdFloatAdd               0      0.00%     72.14% # Type of FU issued
system.cpu.iq.FU_type_0::SimdFloatAlu               0      0.00%     72.14% # Type of FU issued
system.cpu.iq.FU_type_0::SimdFloatCmp               0      0.00%     72.14% # Type of FU issued
system.cpu.iq.FU_type_0::SimdFloatCvt               0      0.00%     72.14% # Type of FU issued
system.cpu.iq.FU_type_0::SimdFloatDiv               0      0.00%     72.14% # Type of FU issued
system.cpu.iq.FU_type_0::SimdFloatMisc              0      0.00%     72.14% # Type of FU issued
system.cpu.iq.FU_type_0::SimdFloatMult              0      0.00%     72.14% # Type of FU issued
system.cpu.iq.FU_type_0::SimdFloatMultAcc            0      0.00%     72.14% # Type of FU issued
system.cpu.iq.FU_type_0::SimdFloatSqrt              0      0.00%     72.14% # Type of FU issued
system.cpu.iq.FU_type_0::SimdAes                    0      0.00%     72.14% # Type of FU issued
system.cpu.iq.FU_type_0::SimdAesMix                 0      0.00%     72.14% # Type of FU issued
system.cpu.iq.FU_type_0::SimdSha1Hash               0      0.00%     72.14% # Type of FU issued
system.cpu.iq.FU_type_0::SimdSha1Hash2              0      0.00%     72.14% # Type of FU issued
system.cpu.iq.FU_type_0::SimdSha256Hash             0      0.00%     72.14% # Type of FU issued
system.cpu.iq.FU_type_0::SimdSha256Hash2            0      0.00%     72.14% # Type of FU issued
system.cpu.iq.FU_type_0::SimdShaSigma2              0      0.00%     72.14% # Type of FU issued
system.cpu.iq.FU_type_0::SimdShaSigma3              0      0.00%     72.14% # Type of FU issued
system.cpu.iq.FU_type_0::MemRead              7313519     20.31%     92.45% # Type of FU issued
system.cpu.iq.FU_type_0::MemWrite             2637398      7.32%     99.78% # Type of FU issued
system.cpu.iq.FU_type_0::FloatMemRead           40111      0.11%     99.89% # Type of FU issued
system.cpu.iq.FU_type_0::FloatMemWrite          40475      0.11%    100.00% # Type of FU issued
system.cpu.iq.FU_type_0::IprAccess                  0      0.00%    100.00% # Type of FU issued
system.cpu.iq.FU_type_0::InstPrefetch               0      0.00%    100.00% # Type of FU issued
system.cpu.iq.FU_type_0::total               36012783                       # Type of FU issued
system.cpu.iq.rate                           1.489227                       # Inst issue rate
system.cpu.iq.fu_busy_cnt                     2583048                       # FU busy when requested
system.cpu.iq.fu_busy_rate                   0.071726                       # FU busy rate (busy events/executed inst)
system.cpu.iq.int_inst_queue_reads           98750001                       # Number of integer instruction queue reads
system.cpu.iq.int_inst_queue_writes          44357771                       # Number of integer instruction queue writes
system.cpu.iq.int_inst_queue_wakeup_accesses     35117092                       # Number of integer instruction queue wakeup accesses
system.cpu.iq.fp_inst_queue_reads              185029                       # Number of floating instruction queue reads
system.cpu.iq.fp_inst_queue_writes              92357                       # Number of floating instruction queue writes
system.cpu.iq.fp_inst_queue_wakeup_accesses        92166                       # Number of floating instruction queue wakeup accesses
system.cpu.iq.vec_inst_queue_reads                  0                       # Number of vector instruction queue reads
system.cpu.iq.vec_inst_queue_writes                 0                       # Number of vector instruction queue writes
system.cpu.iq.vec_inst_queue_wakeup_accesses            0                       # Number of vector instruction queue wakeup accesses
system.cpu.iq.int_alu_accesses               38483331                       # Number of integer alu accesses
system.cpu.iq.fp_alu_accesses                   92822                       # Number of floating point alu accesses
system.cpu.iq.vec_alu_accesses                      0                       # Number of vector alu accesses
system.cpu.iew.lsq.thread0.forwLoads           995369                       # Number of loads that had data forwarded from stores
system.cpu.iew.lsq.thread0.invAddrLoads             0                       # Number of loads ignored due to an invalid address
system.cpu.iew.lsq.thread0.squashedLoads      1789244                       # Number of loads squashed
system.cpu.iew.lsq.thread0.ignoredResponses        14386                       # Number of memory responses ignored because the instruction is squashed
system.cpu.iew.lsq.thread0.memOrderViolation          551                       # Number of memory ordering violations
system.cpu.iew.lsq.thread0.squashedStores       474535                       # Number of stores squashed
system.cpu.iew.lsq.thread0.invAddrSwpfs             0                       # Number of software prefetches ignored due to an invalid address
system.cpu.iew.lsq.thread0.blockedLoads             0                       # Number of blocked loads due to partial load-store forwarding
system.cpu.iew.lsq.thread0.rescheduledLoads            1                       # Number of loads that were rescheduled
system.cpu.iew.lsq.thread0.cacheBlocked            15                       # Number of times an access to memory failed due to the cache being blocked
system.cpu.iew.iewIdleCycles                        0                       # Number of cycles IEW is idle
system.cpu.iew.iewSquashCycles                 223221                       # Number of cycles IEW is squashing
system.cpu.iew.iewBlockCycles                  266892                       # Number of cycles IEW is blocking
system.cpu.iew.iewUnblockCycles                  4905                       # Number of cycles IEW is unblocking
system.cpu.iew.iewDispatchedInsts            38397867                       # Number of instructions dispatched to IQ
system.cpu.iew.iewDispSquashedInsts            132046                       # Number of squashed instructions skipped by dispatch
system.cpu.iew.iewDispLoadInsts               8009140                       # Number of dispatched load instructions
system.cpu.iew.iewDispStoreInsts              2954944                       # Number of dispatched store instructions
system.cpu.iew.iewDispNonSpecInsts                432                       # Number of dispatched non-speculative instructions
system.cpu.iew.iewIQFullEvents                    344                       # Number of times the IQ has become full, causing a stall
system.cpu.iew.iewLSQFullEvents                  4097                       # Number of times the LSQ has become full, causing a stall
system.cpu.iew.memOrderViolationEvents            551                       # Number of memory order violations
system.cpu.iew.predictedTakenIncorrect          79153                       # Number of branches that were predicted taken incorrectly
system.cpu.iew.predictedNotTakenIncorrect       164948                       # Number of branches that were predicted not taken incorrectly
system.cpu.iew.branchMispredicts               244101                       # Number of branch mispredicts detected at execute
system.cpu.iew.iewExecutedInsts              35458371                       # Number of executed instructions
system.cpu.iew.iewExecLoadInsts               7204835                       # Number of load instructions executed
system.cpu.iew.iewExecSquashedInsts            554412                       # Number of squashed instructions skipped in execute
system.cpu.iew.exec_swp                             0                       # number of swp insts executed
system.cpu.iew.exec_nop                             0                       # number of nop insts executed
system.cpu.iew.exec_refs                      9850591                       # number of memory reference insts executed
system.cpu.iew.exec_branches                  3565897                       # Number of branches executed
system.cpu.iew.exec_stores                    2645756                       # Number of stores executed
system.cpu.iew.exec_rate                     1.466300                       # Inst execution rate
system.cpu.iew.wb_sent                       35326972                       # cumulative count of insts sent to commit
system.cpu.iew.wb_count                      35209258                       # cumulative count of insts written-back
system.cpu.iew.wb_producers                  27166657                       # num instructions producing a value
system.cpu.iew.wb_consumers                  36971003                       # num instructions consuming a value
system.cpu.iew.wb_rate                       1.455999                       # insts written-back per cycle
system.cpu.iew.wb_fanout                     0.734810                       # average fanout of values written-back
system.cpu.commit.commitSquashedInsts         5672252                       # The number of squashed insts skipped by commit
system.cpu.commit.commitNonSpecStalls              23                       # The number of times commit has been forced to stall to communicate backwards
system.cpu.commit.branchMispredicts            222705                       # The number of times a branch was mispredicted
system.cpu.commit.committed_per_cycle::samples     23673154                       # Number of insts commited each cycle
system.cpu.commit.committed_per_cycle::mean     1.366364                       # Number of insts commited each cycle
system.cpu.commit.committed_per_cycle::stdev     0.862826                       # Number of insts commited each cycle
system.cpu.commit.committed_per_cycle::underflows            0      0.00%      0.00% # Number of insts commited each cycle
system.cpu.commit.committed_per_cycle::0      6064204     25.62%     25.62% # Number of insts commited each cycle
system.cpu.commit.committed_per_cycle::1      2871744     12.13%     37.75% # Number of insts commited each cycle
system.cpu.commit.committed_per_cycle::2     14737206     62.25%    100.00% # Number of insts commited each cycle
system.cpu.commit.committed_per_cycle::overflows            0      0.00%    100.00% # Number of insts commited each cycle
system.cpu.commit.committed_per_cycle::min_value            0                       # Number of insts commited each cycle
system.cpu.commit.committed_per_cycle::max_value            2                       # Number of insts commited each cycle
system.cpu.commit.committed_per_cycle::total     23673154                       # Number of insts commited each cycle
system.cpu.commit.committedInsts             18836239                       # Number of instructions committed
system.cpu.commit.committedOps               32346156                       # Number of ops (including micro ops) committed
system.cpu.commit.swp_count                         0                       # Number of s/w prefetches committed
system.cpu.commit.refs                        8700305                       # Number of memory references committed
system.cpu.commit.loads                       6219896                       # Number of loads committed
system.cpu.commit.membars                           0                       # Number of memory barriers committed
system.cpu.commit.branches                    3419410                       # Number of branches committed
system.cpu.commit.vec_insts                         0                       # Number of committed Vector instructions.
system.cpu.commit.fp_insts                      92099                       # Number of committed floating point instructions.
system.cpu.commit.int_insts                  32294501                       # Number of committed integer instructions.
system.cpu.commit.function_calls               120304                       # Number of function calls committed.
system.cpu.commit.op_class_0::No_OpClass        10140      0.03%      0.03% # Class of committed instruction
system.cpu.commit.op_class_0::IntAlu         23565672     72.85%     72.89% # Class of committed instruction
system.cpu.commit.op_class_0::IntMult           58948      0.18%     73.07% # Class of committed instruction
system.cpu.commit.op_class_0::IntDiv               28      0.00%     73.07% # Class of committed instruction
system.cpu.commit.op_class_0::FloatAdd          10014      0.03%     73.10% # Class of committed instruction
system.cpu.commit.op_class_0::FloatCmp              0      0.00%     73.10% # Class of committed instruction
system.cpu.commit.op_class_0::FloatCvt              0      0.00%     73.10% # Class of committed instruction
system.cpu.commit.op_class_0::FloatMult             0      0.00%     73.10% # Class of committed instruction
system.cpu.commit.op_class_0::FloatMultAcc            0      0.00%     73.10% # Class of committed instruction
system.cpu.commit.op_class_0::FloatDiv              0      0.00%     73.10% # Class of committed instruction
system.cpu.commit.op_class_0::FloatMisc             0      0.00%     73.10% # Class of committed instruction
system.cpu.commit.op_class_0::FloatSqrt             0      0.00%     73.10% # Class of committed instruction
system.cpu.commit.op_class_0::SimdAdd             374      0.00%     73.10% # Class of committed instruction
system.cpu.commit.op_class_0::SimdAddAcc            0      0.00%     73.10% # Class of committed instruction
system.cpu.commit.op_class_0::SimdAlu              94      0.00%     73.10% # Class of committed instruction
system.cpu.commit.op_class_0::SimdCmp               0      0.00%     73.10% # Class of committed instruction
system.cpu.commit.op_class_0::SimdCvt             140      0.00%     73.10% # Class of committed instruction
system.cpu.commit.op_class_0::SimdMisc            255      0.00%     73.10% # Class of committed instruction
system.cpu.commit.op_class_0::SimdMult              0      0.00%     73.10% # Class of committed instruction
system.cpu.commit.op_class_0::SimdMultAcc            0      0.00%     73.10% # Class of committed instruction
system.cpu.commit.op_class_0::SimdShift           186      0.00%     73.10% # Class of committed instruction
system.cpu.commit.op_class_0::SimdShiftAcc            0      0.00%     73.10% # Class of committed instruction
system.cpu.commit.op_class_0::SimdSqrt              0      0.00%     73.10% # Class of committed instruction
system.cpu.commit.op_class_0::SimdFloatAdd            0      0.00%     73.10% # Class of committed instruction
system.cpu.commit.op_class_0::SimdFloatAlu            0      0.00%     73.10% # Class of committed instruction
system.cpu.commit.op_class_0::SimdFloatCmp            0      0.00%     73.10% # Class of committed instruction
system.cpu.commit.op_class_0::SimdFloatCvt            0      0.00%     73.10% # Class of committed instruction
system.cpu.commit.op_class_0::SimdFloatDiv            0      0.00%     73.10% # Class of committed instruction
system.cpu.commit.op_class_0::SimdFloatMisc            0      0.00%     73.10% # Class of committed instruction
system.cpu.commit.op_class_0::SimdFloatMult            0      0.00%     73.10% # Class of committed instruction
system.cpu.commit.op_class_0::SimdFloatMultAcc            0      0.00%     73.10% # Class of committed instruction
system.cpu.commit.op_class_0::SimdFloatSqrt            0      0.00%     73.10% # Class of committed instruction
system.cpu.commit.op_class_0::SimdAes               0      0.00%     73.10% # Class of committed instruction
system.cpu.commit.op_class_0::SimdAesMix            0      0.00%     73.10% # Class of committed instruction
system.cpu.commit.op_class_0::SimdSha1Hash            0      0.00%     73.10% # Class of committed instruction
system.cpu.commit.op_class_0::SimdSha1Hash2            0      0.00%     73.10% # Class of committed instruction
system.cpu.commit.op_class_0::SimdSha256Hash            0      0.00%     73.10% # Class of committed instruction
system.cpu.commit.op_class_0::SimdSha256Hash2            0      0.00%     73.10% # Class of committed instruction
system.cpu.commit.op_class_0::SimdShaSigma2            0      0.00%     73.10% # Class of committed instruction
system.cpu.commit.op_class_0::SimdShaSigma3            0      0.00%     73.10% # Class of committed instruction
system.cpu.commit.op_class_0::MemRead         6179810     19.11%     92.21% # Class of committed instruction
system.cpu.commit.op_class_0::MemWrite        2439984      7.54%     99.75% # Class of committed instruction
system.cpu.commit.op_class_0::FloatMemRead        40086      0.12%     99.88% # Class of committed instruction
system.cpu.commit.op_class_0::FloatMemWrite        40425      0.12%    100.00% # Class of committed instruction
system.cpu.commit.op_class_0::IprAccess             0      0.00%    100.00% # Class of committed instruction
system.cpu.commit.op_class_0::InstPrefetch            0      0.00%    100.00% # Class of committed instruction
system.cpu.commit.op_class_0::total          32346156                       # Class of committed instruction
system.cpu.commit.bw_lim_events              14737206                       # number cycles where commit BW limit reached
system.cpu.rob.rob_reads                     46954356                       # The number of ROB reads
system.cpu.rob.rob_writes                    76503497                       # The number of ROB writes
system.cpu.timesIdled                             471                       # Number of times that the entire CPU went into an idle state and unscheduled itself
system.cpu.idleCycles                           43069                       # Total number of cycles that the CPU has spent unscheduled due to idling
system.cpu.committedInsts                    18836239                       # Number of Instructions Simulated
system.cpu.committedOps                      32346156                       # Number of Ops (including micro ops) Simulated
system.cpu.cpi                               1.283813                       # CPI: Cycles Per Instruction
system.cpu.cpi_total                         1.283813                       # CPI: Total CPI of All Threads
system.cpu.ipc                               0.778930                       # IPC: Instructions Per Cycle
system.cpu.ipc_total                         0.778930                       # IPC: Total IPC of All Threads
system.cpu.int_regfile_reads                 54752813                       # number of integer regfile reads
system.cpu.int_regfile_writes                29047354                       # number of integer regfile writes
system.cpu.fp_regfile_reads                     44092                       # number of floating regfile reads
system.cpu.fp_regfile_writes                    51636                       # number of floating regfile writes
system.cpu.cc_regfile_reads                  16824615                       # number of cc regfile reads
system.cpu.cc_regfile_writes                 11394299                       # number of cc regfile writes
system.cpu.misc_regfile_reads                17278366                       # number of misc regfile reads
system.cpu.dcache.tags.pwrStateResidencyTicks::UNDEFINED  12091100500                       # Cumulative time (in ticks) in various power states
system.cpu.dcache.tags.tagsinuse           884.226544                       # Cycle average of tags in use
system.cpu.dcache.tags.total_refs             8687154                       # Total number of references to valid blocks.
system.cpu.dcache.tags.sampled_refs              3259                       # Sample count of references to valid blocks.
system.cpu.dcache.tags.avg_refs           2665.588831                       # Average number of references to valid blocks.
system.cpu.dcache.tags.warmup_cycle            170000                       # Cycle when the warmup percentage was hit.
system.cpu.dcache.tags.occ_blocks::.cpu.data   884.226544                       # Average occupied blocks per requestor
system.cpu.dcache.tags.occ_percent::.cpu.data     0.863502                       # Average percentage of cache occupancy
system.cpu.dcache.tags.occ_percent::total     0.863502                       # Average percentage of cache occupancy
system.cpu.dcache.tags.occ_task_id_blocks::1024         1024                       # Occupied blocks per task id
system.cpu.dcache.tags.age_task_id_blocks_1024::0           79                       # Occupied blocks per task id
system.cpu.dcache.tags.age_task_id_blocks_1024::1          371                       # Occupied blocks per task id
system.cpu.dcache.tags.age_task_id_blocks_1024::2          522                       # Occupied blocks per task id
system.cpu.dcache.tags.age_task_id_blocks_1024::3           42                       # Occupied blocks per task id
system.cpu.dcache.tags.age_task_id_blocks_1024::4           10                       # Occupied blocks per task id
system.cpu.dcache.tags.occ_task_id_percent::1024            1                       # Percentage of cache occupancy per task id
system.cpu.dcache.tags.tag_accesses          69505451                       # Number of tag accesses
system.cpu.dcache.tags.data_accesses         69505451                       # Number of data accesses
system.cpu.dcache.pwrStateResidencyTicks::UNDEFINED  12091100500                       # Cumulative time (in ticks) in various power states
system.cpu.dcache.ReadReq_hits::.cpu.data      6205465                       # number of ReadReq hits
system.cpu.dcache.ReadReq_hits::total         6205465                       # number of ReadReq hits
system.cpu.dcache.WriteReq_hits::.cpu.data      2478430                       # number of WriteReq hits
system.cpu.dcache.WriteReq_hits::total        2478430                       # number of WriteReq hits
system.cpu.dcache.demand_hits::.cpu.data      8683895                       # number of demand (read+write) hits
system.cpu.dcache.demand_hits::total          8683895                       # number of demand (read+write) hits
system.cpu.dcache.overall_hits::.cpu.data      8683895                       # number of overall hits
system.cpu.dcache.overall_hits::total         8683895                       # number of overall hits
system.cpu.dcache.ReadReq_misses::.cpu.data         1900                       # number of ReadReq misses
system.cpu.dcache.ReadReq_misses::total          1900                       # number of ReadReq misses
system.cpu.dcache.WriteReq_misses::.cpu.data         1979                       # number of WriteReq misses
system.cpu.dcache.WriteReq_misses::total         1979                       # number of WriteReq misses
system.cpu.dcache.demand_misses::.cpu.data         3879                       # number of demand (read+write) misses
system.cpu.dcache.demand_misses::total           3879                       # number of demand (read+write) misses
system.cpu.dcache.overall_misses::.cpu.data         3879                       # number of overall misses
system.cpu.dcache.overall_misses::total          3879                       # number of overall misses
system.cpu.dcache.ReadReq_miss_latency::.cpu.data     60695500                       # number of ReadReq miss cycles
system.cpu.dcache.ReadReq_miss_latency::total     60695500                       # number of ReadReq miss cycles
system.cpu.dcache.WriteReq_miss_latency::.cpu.data    166774500                       # number of WriteReq miss cycles
system.cpu.dcache.WriteReq_miss_latency::total    166774500                       # number of WriteReq miss cycles
system.cpu.dcache.demand_miss_latency::.cpu.data    227470000                       # number of demand (read+write) miss cycles
system.cpu.dcache.demand_miss_latency::total    227470000                       # number of demand (read+write) miss cycles
system.cpu.dcache.overall_miss_latency::.cpu.data    227470000                       # number of overall miss cycles
system.cpu.dcache.overall_miss_latency::total    227470000                       # number of overall miss cycles
system.cpu.dcache.ReadReq_accesses::.cpu.data      6207365                       # number of ReadReq accesses(hits+misses)
system.cpu.dcache.ReadReq_accesses::total      6207365                       # number of ReadReq accesses(hits+misses)
system.cpu.dcache.WriteReq_accesses::.cpu.data      2480409                       # number of WriteReq accesses(hits+misses)
system.cpu.dcache.WriteReq_accesses::total      2480409                       # number of WriteReq accesses(hits+misses)
system.cpu.dcache.demand_accesses::.cpu.data      8687774                       # number of demand (read+write) accesses
system.cpu.dcache.demand_accesses::total      8687774                       # number of demand (read+write) accesses
system.cpu.dcache.overall_accesses::.cpu.data      8687774                       # number of overall (read+write) accesses
system.cpu.dcache.overall_accesses::total      8687774                       # number of overall (read+write) accesses
system.cpu.dcache.ReadReq_miss_rate::.cpu.data     0.000306                       # miss rate for ReadReq accesses
system.cpu.dcache.ReadReq_miss_rate::total     0.000306                       # miss rate for ReadReq accesses
system.cpu.dcache.WriteReq_miss_rate::.cpu.data     0.000798                       # miss rate for WriteReq accesses
system.cpu.dcache.WriteReq_miss_rate::total     0.000798                       # miss rate for WriteReq accesses
system.cpu.dcache.demand_miss_rate::.cpu.data     0.000446                       # miss rate for demand accesses
system.cpu.dcache.demand_miss_rate::total     0.000446                       # miss rate for demand accesses
system.cpu.dcache.overall_miss_rate::.cpu.data     0.000446                       # miss rate for overall accesses
system.cpu.dcache.overall_miss_rate::total     0.000446                       # miss rate for overall accesses
system.cpu.dcache.ReadReq_avg_miss_latency::.cpu.data        31945                       # average ReadReq miss latency
system.cpu.dcache.ReadReq_avg_miss_latency::total        31945                       # average ReadReq miss latency
system.cpu.dcache.WriteReq_avg_miss_latency::.cpu.data 84272.107125                       # average WriteReq miss latency
system.cpu.dcache.WriteReq_avg_miss_latency::total 84272.107125                       # average WriteReq miss latency
[...]
system.l3bus.snoop_fanout::min_value                0                       # Request fanout histogram
system.l3bus.snoop_fanout::max_value                0                       # Request fanout histogram
system.l3bus.snoop_fanout::total                 2460                       # Request fanout histogram
system.l3bus.reqLayer0.occupancy              1231500                       # Layer occupancy (ticks)
system.l3bus.reqLayer0.utilization                0.0                       # Layer utilization (%)
system.l3bus.respLayer0.occupancy             6150000                       # Layer occupancy (ticks)
system.l3bus.respLayer0.utilization               0.1                       # Layer utilization (%)
system.l3cache.tags.pwrStateResidencyTicks::UNDEFINED  12091100500                       # Cumulative time (in ticks) in various power states
system.l3cache.tags.tagsinuse             1712.726833                       # Cycle average of tags in use
system.l3cache.tags.total_refs                   2460                       # Total number of references to valid blocks.
system.l3cache.tags.sampled_refs                 2460                       # Sample count of references to valid blocks.
system.l3cache.tags.avg_refs                        1                       # Average number of references to valid blocks.
system.l3cache.tags.warmup_cycle                76000                       # Cycle when the warmup percentage was hit.
system.l3cache.tags.occ_blocks::.cpu.inst   693.763711                       # Average occupied blocks per requestor
system.l3cache.tags.occ_blocks::.cpu.data  1018.963122                       # Average occupied blocks per requestor
system.l3cache.tags.occ_percent::.cpu.inst     0.021172                       # Average percentage of cache occupancy
system.l3cache.tags.occ_percent::.cpu.data     0.031096                       # Average percentage of cache occupancy
system.l3cache.tags.occ_percent::total       0.052268                       # Average percentage of cache occupancy
system.l3cache.tags.occ_task_id_blocks::1024         2460                       # Occupied blocks per task id
system.l3cache.tags.age_task_id_blocks_1024::0           65                       # Occupied blocks per task id
system.l3cache.tags.age_task_id_blocks_1024::2          316                       # Occupied blocks per task id
system.l3cache.tags.age_task_id_blocks_1024::3          771                       # Occupied blocks per task id
system.l3cache.tags.age_task_id_blocks_1024::4         1308                       # Occupied blocks per task id
system.l3cache.tags.occ_task_id_percent::1024     0.075073                       # Percentage of cache occupancy per task id
system.l3cache.tags.tag_accesses                41820                       # Number of tag accesses
system.l3cache.tags.data_accesses               41820                       # Number of data accesses
system.l3cache.pwrStateResidencyTicks::UNDEFINED  12091100500                       # Cumulative time (in ticks) in various power states
system.l3cache.ReadExReq_misses::.cpu.data         1396                       # number of ReadExReq misses
system.l3cache.ReadExReq_misses::total           1396                       # number of ReadExReq misses
system.l3cache.ReadSharedReq_misses::.cpu.inst          792                       # number of ReadSharedReq misses
system.l3cache.ReadSharedReq_misses::.cpu.data          272                       # number of ReadSharedReq misses
system.l3cache.ReadSharedReq_misses::total         1064                       # number of ReadSharedReq misses
system.l3cache.demand_misses::.cpu.inst           792                       # number of demand (read+write) misses
system.l3cache.demand_misses::.cpu.data          1668                       # number of demand (read+write) misses
system.l3cache.demand_misses::total              2460                       # number of demand (read+write) misses
system.l3cache.overall_misses::.cpu.inst          792                       # number of overall misses
system.l3cache.overall_misses::.cpu.data         1668                       # number of overall misses
system.l3cache.overall_misses::total             2460                       # number of overall misses
system.l3cache.ReadExReq_miss_latency::.cpu.data    140450000                       # number of ReadExReq miss cycles
system.l3cache.ReadExReq_miss_latency::total    140450000                       # number of ReadExReq miss cycles
system.l3cache.ReadSharedReq_miss_latency::.cpu.inst     68926500                       # number of ReadSharedReq miss cycles
system.l3cache.ReadSharedReq_miss_latency::.cpu.data     23250500                       # number of ReadSharedReq miss cycles
system.l3cache.ReadSharedReq_miss_latency::total     92177000                       # number of ReadSharedReq miss cycles
system.l3cache.demand_miss_latency::.cpu.inst     68926500                       # number of demand (read+write) miss cycles
system.l3cache.demand_miss_latency::.cpu.data    163700500                       # number of demand (read+write) miss cycles
system.l3cache.demand_miss_latency::total    232627000                       # number of demand (read+write) miss cycles
system.l3cache.overall_miss_latency::.cpu.inst     68926500                       # number of overall miss cycles
system.l3cache.overall_miss_latency::.cpu.data    163700500                       # number of overall miss cycles
system.l3cache.overall_miss_latency::total    232627000                       # number of overall miss cycles
system.l3cache.ReadExReq_accesses::.cpu.data         1396                       # number of ReadExReq accesses(hits+misses)
system.l3cache.ReadExReq_accesses::total         1396                       # number of ReadExReq accesses(hits+misses)
system.l3cache.ReadSharedReq_accesses::.cpu.inst          792                       # number of ReadSharedReq accesses(hits+misses)
system.l3cache.ReadSharedReq_accesses::.cpu.data          272                       # number of ReadSharedReq accesses(hits+misses)
system.l3cache.ReadSharedReq_accesses::total         1064                       # number of ReadSharedReq accesses(hits+misses)
system.l3cache.demand_accesses::.cpu.inst          792                       # number of demand (read+write) accesses
system.l3cache.demand_accesses::.cpu.data         1668                       # number of demand (read+write) accesses
system.l3cache.demand_accesses::total            2460                       # number of demand (read+write) accesses
system.l3cache.overall_accesses::.cpu.inst          792                       # number of overall (read+write) accesses
system.l3cache.overall_accesses::.cpu.data         1668                       # number of overall (read+write) accesses
system.l3cache.overall_accesses::total           2460                       # number of overall (read+write) accesses
system.l3cache.ReadExReq_miss_rate::.cpu.data            1                       # miss rate for ReadExReq accesses
system.l3cache.ReadExReq_miss_rate::total            1                       # miss rate for ReadExReq accesses
system.l3cache.ReadSharedReq_miss_rate::.cpu.inst            1                       # miss rate for ReadSharedReq accesses
system.l3cache.ReadSharedReq_miss_rate::.cpu.data            1                       # miss rate for ReadSharedReq accesses
system.l3cache.ReadSharedReq_miss_rate::total            1                       # miss rate for ReadSharedReq accesses
system.l3cache.demand_miss_rate::.cpu.inst            1                       # miss rate for demand accesses
system.l3cache.demand_miss_rate::.cpu.data            1                       # miss rate for demand accesses
system.l3cache.demand_miss_rate::total              1                       # miss rate for demand accesses
system.l3cache.overall_miss_rate::.cpu.inst            1                       # miss rate for overall accesses
system.l3cache.overall_miss_rate::.cpu.data            1                       # miss rate for overall accesses
system.l3cache.overall_miss_rate::total             1                       # miss rate for overall accesses
system.l3cache.ReadExReq_avg_miss_latency::.cpu.data 100608.882521                       # average ReadExReq miss latency
system.l3cache.ReadExReq_avg_miss_latency::total 100608.882521                       # average ReadExReq miss latency
system.l3cache.ReadSharedReq_avg_miss_latency::.cpu.inst 87028.409091                       # average ReadSharedReq miss latency
system.l3cache.ReadSharedReq_avg_miss_latency::.cpu.data 85479.779412                       # average ReadSharedReq miss latency
system.l3cache.ReadSharedReq_avg_miss_latency::total 86632.518797                       # average ReadSharedReq miss latency
system.l3cache.demand_avg_miss_latency::.cpu.inst 87028.409091                       # average overall miss latency
system.l3cache.demand_avg_miss_latency::.cpu.data 98141.786571                       # average overall miss latency
system.l3cache.demand_avg_miss_latency::total 94563.821138                       # average overall miss latency
system.l3cache.overall_avg_miss_latency::.cpu.inst 87028.409091                       # average overall miss latency
system.l3cache.overall_avg_miss_latency::.cpu.data 98141.786571                       # average overall miss latency
system.l3cache.overall_avg_miss_latency::total 94563.821138                       # average overall miss latency
system.l3cache.blocked_cycles::no_mshrs             0                       # number of cycles access was blocked
system.l3cache.blocked_cycles::no_targets            0                       # number of cycles access was blocked
system.l3cache.blocked::no_mshrs                    0                       # number of cycles access was blocked
system.l3cache.blocked::no_targets                  0                       # number of cycles access was blocked
system.l3cache.avg_blocked_cycles::no_mshrs          nan                       # average number of cycles each access was blocked
system.l3cache.avg_blocked_cycles::no_targets          nan                       # average number of cycles each access was blocked
system.l3cache.ReadExReq_mshr_misses::.cpu.data         1396                       # number of ReadExReq MSHR misses
system.l3cache.ReadExReq_mshr_misses::total         1396                       # number of ReadExReq MSHR misses
system.l3cache.ReadSharedReq_mshr_misses::.cpu.inst          792                       # number of ReadSharedReq MSHR misses
system.l3cache.ReadSharedReq_mshr_misses::.cpu.data          272                       # number of ReadSharedReq MSHR misses
system.l3cache.ReadSharedReq_mshr_misses::total         1064                       # number of ReadSharedReq MSHR misses
system.l3cache.demand_mshr_misses::.cpu.inst          792                       # number of demand (read+write) MSHR misses
system.l3cache.demand_mshr_misses::.cpu.data         1668                       # number of demand (read+write) MSHR misses
system.l3cache.demand_mshr_misses::total         2460                       # number of demand (read+write) MSHR misses
system.l3cache.overall_mshr_misses::.cpu.inst          792                       # number of overall MSHR misses
system.l3cache.overall_mshr_misses::.cpu.data         1668                       # number of overall MSHR misses
system.l3cache.overall_mshr_misses::total         2460                       # number of overall MSHR misses
system.l3cache.ReadExReq_mshr_miss_latency::.cpu.data    137658000                       # number of ReadExReq MSHR miss cycles
system.l3cache.ReadExReq_mshr_miss_latency::total    137658000                       # number of ReadExReq MSHR miss cycles
system.l3cache.ReadSharedReq_mshr_miss_latency::.cpu.inst     67342500                       # number of ReadSharedReq MSHR miss cycles
system.l3cache.ReadSharedReq_mshr_miss_latency::.cpu.data     22706500                       # number of ReadSharedReq MSHR miss cycles
system.l3cache.ReadSharedReq_mshr_miss_latency::total     90049000                       # number of ReadSharedReq MSHR miss cycles
system.l3cache.demand_mshr_miss_latency::.cpu.inst     67342500                       # number of demand (read+write) MSHR miss cycles
system.l3cache.demand_mshr_miss_latency::.cpu.data    160364500                       # number of demand (read+write) MSHR miss cycles
system.l3cache.demand_mshr_miss_latency::total    227707000                       # number of demand (read+write) MSHR miss cycles
system.l3cache.overall_mshr_miss_latency::.cpu.inst     67342500                       # number of overall MSHR miss cycles
system.l3cache.overall_mshr_miss_latency::.cpu.data    160364500                       # number of overall MSHR miss cycles
system.l3cache.overall_mshr_miss_latency::total    227707000                       # number of overall MSHR miss cycles
system.l3cache.ReadExReq_mshr_miss_rate::.cpu.data            1                       # mshr miss rate for ReadExReq accesses
system.l3cache.ReadExReq_mshr_miss_rate::total            1                       # mshr miss rate for ReadExReq accesses
system.l3cache.ReadSharedReq_mshr_miss_rate::.cpu.inst            1                       # mshr miss rate for ReadSharedReq accesses
system.l3cache.ReadSharedReq_mshr_miss_rate::.cpu.data            1                       # mshr miss rate for ReadSharedReq accesses
system.l3cache.ReadSharedReq_mshr_miss_rate::total            1                       # mshr miss rate for ReadSharedReq accesses
system.l3cache.demand_mshr_miss_rate::.cpu.inst            1                       # mshr miss rate for demand accesses
system.l3cache.demand_mshr_miss_rate::.cpu.data            1                       # mshr miss rate for demand accesses
system.l3cache.demand_mshr_miss_rate::total            1                       # mshr miss rate for demand accesses
system.l3cache.overall_mshr_miss_rate::.cpu.inst            1                       # mshr miss rate for overall accesses
system.l3cache.overall_mshr_miss_rate::.cpu.data            1                       # mshr miss rate for overall accesses
system.l3cache.overall_mshr_miss_rate::total            1                       # mshr miss rate for overall accesses
system.l3cache.ReadExReq_avg_mshr_miss_latency::.cpu.data 98608.882521                       # average ReadExReq mshr miss latency
system.l3cache.ReadExReq_avg_mshr_miss_latency::total 98608.882521                       # average ReadExReq mshr miss latency
system.l3cache.ReadSharedReq_avg_mshr_miss_latency::.cpu.inst 85028.409091                       # average ReadSharedReq mshr miss latency
system.l3cache.ReadSharedReq_avg_mshr_miss_latency::.cpu.data 83479.779412                       # average ReadSharedReq mshr miss latency
system.l3cache.ReadSharedReq_avg_mshr_miss_latency::total 84632.518797                       # average ReadSharedReq mshr miss latency
system.l3cache.demand_avg_mshr_miss_latency::.cpu.inst 85028.409091                       # average overall mshr miss latency
system.l3cache.demand_avg_mshr_miss_latency::.cpu.data 96141.786571                       # average overall mshr miss latency
system.l3cache.demand_avg_mshr_miss_latency::total 92563.821138                       # average overall mshr miss latency
system.l3cache.overall_avg_mshr_miss_latency::.cpu.inst 85028.409091                       # average overall mshr miss latency
system.l3cache.overall_avg_mshr_miss_latency::.cpu.data 96141.786571                       # average overall mshr miss latency
system.l3cache.overall_avg_mshr_miss_latency::total 92563.821138                       # average overall mshr miss latency
system.l3cache.replacements                         0                       # number of replacements
system.membus.snoop_filter.tot_requests          2460                       # Total number of requests made to the snoop filter.
system.membus.snoop_filter.hit_single_requests            0                       # Number of requests hitting in the snoop filter with a single holder of the requested data.
system.membus.snoop_filter.hit_multi_requests            0                       # Number of requests hitting in the snoop filter with multiple (>1) holders of the requested data.
system.membus.snoop_filter.tot_snoops               0                       # Total number of snoops made to the snoop filter.
system.membus.snoop_filter.hit_single_snoops            0                       # Number of snoops hitting in the snoop filter with a single holder of the requested data.
system.membus.snoop_filter.hit_multi_snoops            0                       # Number of snoops hitting in the snoop filter with multiple (>1) holders of the requested data.
system.membus.pwrStateResidencyTicks::UNDEFINED  12091100500                       # Cumulative time (in ticks) in various power states
system.membus.trans_dist::ReadResp               1064                       # Transaction distribution
system.membus.trans_dist::ReadExReq              1396                       # Transaction distribution
system.membus.trans_dist::ReadExResp             1396                       # Transaction distribution
system.membus.trans_dist::ReadSharedReq          1064                       # Transaction distribution
system.membus.pkt_count_system.l3cache.mem_side::system.mem_ctrl.port         4920                       # Packet count per connected master and slave (bytes)
system.membus.pkt_count_system.l3cache.mem_side::total         4920                       # Packet count per connected master and slave (bytes)
system.membus.pkt_count::total                   4920                       # Packet count per connected master and slave (bytes)
system.membus.pkt_size_system.l3cache.mem_side::system.mem_ctrl.port       157440                       # Cumulative packet size per connected master and slave (bytes)
system.membus.pkt_size_system.l3cache.mem_side::total       157440                       # Cumulative packet size per connected master and slave (bytes)
system.membus.pkt_size::total                  157440                       # Cumulative packet size per connected master and slave (bytes)
system.membus.snoops                                0                       # Total snoops (count)
system.membus.snoopTraffic                          0                       # Total snoop traffic (bytes)
system.membus.snoop_fanout::samples              2460                       # Request fanout histogram
system.membus.snoop_fanout::mean                    0                       # Request fanout histogram
system.membus.snoop_fanout::stdev                   0                       # Request fanout histogram
system.membus.snoop_fanout::underflows              0      0.00%      0.00% # Request fanout histogram
system.membus.snoop_fanout::0                    2460    100.00%    100.00% # Request fanout histogram
system.membus.snoop_fanout::1                       0      0.00%    100.00% # Request fanout histogram
system.membus.snoop_fanout::overflows               0      0.00%    100.00% # Request fanout histogram
system.membus.snoop_fanout::min_value               0                       # Request fanout histogram
system.membus.snoop_fanout::max_value               0                       # Request fanout histogram
system.membus.snoop_fanout::total                2460                       # Request fanout histogram
system.membus.reqLayer0.occupancy             1230000                       # Layer occupancy (ticks)
system.membus.reqLayer0.utilization               0.0                       # Layer utilization (%)
system.membus.respLayer0.occupancy            6579500                       # Layer occupancy (ticks)
system.membus.respLayer0.utilization              0.1                       # Layer utilization (%)

---------- End Simulation Statistics   ----------