
---------- Begin Simulation Statistics ----------
sim_seconds                                  0.013619                       # Number of seconds simulated
sim_ticks                                 13619304500                       # Number of ticks simulated
final_tick                                13619304500                       # Number of ticks from beginning of simulation (restored from checkpoints and never reset)
sim_freq                                 1000000000000                       # Frequency of simulated ticks
host_inst_rate                                 271293                       # Simulator instruction rate (inst/s)
host_op_rate                                   465873                       # Simulator op (including micro ops) rate (op/s)
host_tick_rate                              196155118                       # Simulator tick rate (ticks/s)
host_mem_usage                                 659864                       # Number of bytes of host memory used
host_seconds                                    69.43                       # Real time elapsed on the host
sim_insts                                    18836239                       # Number of instructions simulated
sim_ops                                      32346156                       # Number of ops (including micro ops) simulated
system.clk_domain.voltage_domain.voltage            1                       # Voltage in Volts
system.clk_domain.clock                           500                       # Clock period in ticks
system.mem_ctrl.pwrStateResidencyTicks::UNDEFINED  13619304500                       # Cumulative time (in ticks) in various power states
system.mem_ctrl.bytes_read::.cpu.inst           52480                       # Number of bytes read from this memory
system.mem_ctrl.bytes_read::.cpu.data          107008                       # Number of bytes read from this memory
system.mem_ctrl.bytes_read::total              159488                       # Number of bytes read from this memory
system.mem_ctrl.bytes_inst_read::.cpu.inst        52480                       # Number of instructions bytes read from this memory
system.mem_ctrl.bytes_inst_read::total          52480                       # Number of instructions bytes read from this memory
system.mem_ctrl.num_reads::.cpu.inst              820                       # Number of read requests responded to by this memory
system.mem_ctrl.num_reads::.cpu.data             1672                       # Number of read requests responded to by this memory
system.mem_ctrl.num_reads::total                 2492                       # Number of read requests responded to by this memory
system.mem_ctrl.bw_read::.cpu.inst            3853354                       # Total read bandwidth from this memory (bytes/s)
system.mem_ctrl.bw_read::.cpu.data            7857083                       # Total read bandwidth from this memory (bytes/s)
system.mem_ctrl.bw_read::total               11710436                       # Total read bandwidth from this memory (bytes/s)
system.mem_ctrl.bw_inst_read::.cpu.inst       3853354                       # Instruction read bandwidth from this memory (bytes/s)
system.mem_ctrl.bw_inst_read::total           3853354                       # Instruction read bandwidth from this memory (bytes/s)
system.mem_ctrl.bw_total::.cpu.inst           3853354                       # Total bandwidth to/from this memory (bytes/s)
system.mem_ctrl.bw_total::.cpu.data           7857083                       # Total bandwidth to/from this memory (bytes/s)
system.mem_ctrl.bw_total::total              11710436                       # Total bandwidth to/from this memory (bytes/s)
system.mem_ctrl.avgPriority_.cpu.inst::samples       820.00                       # Average QoS priority value for accepted requests
system.mem_ctrl.avgPriority_.cpu.data::samples      1672.00                       # Average QoS priority value for accepted requests
system.mem_ctrl.priorityMinLatency       0.000000018750                       # per QoS priority minimum request to response latency (s)
system.mem_ctrl.priorityMaxLatency       0.000001107750                       # per QoS priority maximum request to response latency (s)
system.mem_ctrl.numReadWriteTurnArounds             0                       # Number of turnarounds from READ to WRITE
system.mem_ctrl.numWriteReadTurnArounds             0                       # Number of turnarounds from WRITE to READ
system.mem_ctrl.numStayReadState                 5808                       # Number of times bus staying in READ state
system.mem_ctrl.numStayWriteState                   0                       # Number of times bus staying in WRITE state
system.mem_ctrl.readReqs                         2492                       # Number of read requests accepted
system.mem_ctrl.writeReqs                           0                       # Number of write requests accepted
system.mem_ctrl.readBursts                       2492                       # Number of DRAM read bursts, including those serviced by the write queue
system.mem_ctrl.writeBursts                         0                       # Number of DRAM write bursts, including those merged in the write queue
system.mem_ctrl.bytesReadDRAM                  159488                       # Total number of bytes read from DRAM
system.mem_ctrl.bytesReadWrQ                        0                       # Total number of bytes read from write queue
system.mem_ctrl.bytesWritten                        0                       # Total number of bytes written to DRAM
system.mem_ctrl.bytesReadSys                   159488                       # Total read bytes from the system interface side
system.mem_ctrl.bytesWrittenSys                     0                       # Total written bytes from the system interface side
system.mem_ctrl.servicedByWrQ                       0                       # Number of DRAM read bursts serviced by the write queue
system.mem_ctrl.mergedWrBursts                      0                       # Number of DRAM write bursts merged with an existing one
system.mem_ctrl.neitherReadNorWriteReqs             0                       # Number of requests that are neither read nor write
system.mem_ctrl.perBankRdBursts::0                279                       # Per bank write bursts
system.mem_ctrl.perBankRdBursts::1                154                       # Per bank write bursts
system.mem_ctrl.perBankRdBursts::2                172                       # Per bank write bursts
system.mem_ctrl.perBankRdBursts::3                143                       # Per bank write bursts
system.mem_ctrl.perBankRdBursts::4                159                       # Per bank write bursts
system.mem_ctrl.perBankRdBursts::5                141                       # Per bank write bursts
system.mem_ctrl.perBankRdBursts::6                207                       # Per bank write bursts
system.mem_ctrl.perBankRdBursts::7                224                       # Per bank write bursts
system.mem_ctrl.perBankRdBursts::8                157                       # Per bank write bursts
system.mem_ctrl.perBankRdBursts::9                180                       # Per bank write bursts
system.mem_ctrl.perBankRdBursts::10               162                       # Per bank write bursts
system.mem_ctrl.perBankRdBursts::11               107                       # Per bank write bursts
system.mem_ctrl.perBankRdBursts::12                66                       # Per bank write bursts
system.mem_ctrl.perBankRdBursts::13                72                       # Per bank write bursts
system.mem_ctrl.perBankRdBursts::14               127                       # Per bank write bursts
system.mem_ctrl.perBankRdBursts::15               142                       # Per bank write bursts
system.mem_ctrl.perBankWrBursts::0                  0                       # Per bank write bursts
system.mem_ctrl.perBankWrBursts::1                  0                       # Per bank write bursts
system.mem_ctrl.perBankWrBursts::2                  0                       # Per bank write bursts
system.mem_ctrl.perBankWrBursts::3                  0                       # Per bank write bursts
system.mem_ctrl.perBankWrBursts::4                  0                       # Per bank write bursts
system.mem_ctrl.perBankWrBursts::5                  0                       # Per bank write bursts
system.mem_ctrl.perBankWrBursts::6                  0                       # Per bank write bursts
system.mem_ctrl.perBankWrBursts::7                  0                       # Per bank write bursts
system.mem_ctrl.perBankWrBursts::8                  0                       # Per bank write bursts
system.mem_ctrl.perBankWrBursts::9                  0                       # Per bank write bursts
system.mem_ctrl.perBankWrBursts::10                 0                       # Per bank write bursts
system.mem_ctrl.perBankWrBursts::11                 0                       # Per bank write bursts
system.mem_ctrl.perBankWrBursts::12                 0                       # Per bank write bursts
system.mem_ctrl.perBankWrBursts::13                 0                       # Per bank write bursts
system.mem_ctrl.perBankWrBursts::14                 0                       # Per bank write bursts
system.mem_ctrl.perBankWrBursts::15                 0                       # Per bank write bursts
system.mem_ctrl.numRdRetry                          0                       # Number of times read queue was full causing retry
system.mem_ctrl.numWrRetry                          0                       # Number of times write queue was full causing retry
system.mem_ctrl.totGap                    13619213000                       # Total gap between requests
system.mem_ctrl.readPktSize::0                      0                       # Read request sizes (log2)
system.mem_ctrl.readPktSize::1                      0                       # Read request sizes (log2)
system.mem_ctrl.readPktSize::2                      0                       # Read request sizes (log2)
system.mem_ctrl.readPktSize::3                      0                       # Read request sizes (log2)
system.mem_ctrl.readPktSize::4                      0                       # Read request sizes (log2)
system.mem_ctrl.readPktSize::5                      0                       # Read request sizes (log2)
system.mem_ctrl.readPktSize::6                   2492                       # Read request sizes (log2)
system.mem_ctrl.writePktSize::0                     0                       # Write request sizes (log2)
system.mem_ctrl.writePktSize::1                     0                       # Write request sizes (log2)
system.mem_ctrl.writePktSize::2                     0                       # Write request sizes (log2)
system.mem_ctrl.writePktSize::3                     0                       # Write request sizes (log2)
system.mem_ctrl.writePktSize::4                     0                       # Write request sizes (log2)
system.mem_ctrl.writePktSize::5                     0                       # Write request sizes (log2)
system.mem_ctrl.writePktSize::6                     0                       # Write request sizes (log2)
system.mem_ctrl.rdQLenPdf::0                     2103                       # What read queue length does an incoming req see
system.mem_ctrl.rdQLenPdf::1                      307                       # What read queue length does an incoming req see
system.mem_ctrl.rdQLenPdf::2                       62                       # What read queue length does an incoming req see
system.mem_ctrl.rdQLenPdf::3                       13                       # What read queue length does an incoming req see
system.mem_ctrl.rdQLenPdf::4                        5                       # What read queue length does an incoming req see
system.mem_ctrl.rdQLenPdf::5                        1                       # What read queue length does an incoming req see
system.mem_ctrl.rdQLenPdf::6                        1                       # What read queue length does an incoming req see
system.mem_ctrl.rdQLenPdf::7                        0                       # What read queue length does an incoming req see
system.mem_ctrl.rdQLenPdf::8                        0                       # What read queue length does an incoming req see
system.mem_ctrl.rdQLenPdf::9                        0                       # What read queue length does an incoming req see
system.mem_ctrl.rdQLenPdf::10                       0                       # What read queue length does an incoming req see
system.mem_ctrl.rdQLenPdf::11                       0                       # What read queue length does an incoming req see
system.mem_ctrl.rdQLenPdf::12                       0                       # What read queue length does an incoming req see
system.mem_ctrl.rdQLenPdf::13                       0                       # What read queue length does an incoming req see
system.mem_ctrl.rdQLenPdf::14                       0                       # What read queue length does an incoming req see
system.mem_ctrl.rdQLenPdf::15                       0                       # What read queue length does an incoming req see
system.mem_ctrl.rdQLenPdf::16                       0                       # What read queue length does an incoming req see
system.mem_ctrl.rdQLenPdf::17                       0                       # What read queue length does an incoming req see
system.mem_ctrl.rdQLenPdf::18                       0                       # What read queue length does an incoming req see
system.mem_ctrl.rdQLenPdf::19                       0                       # What read queue length does an incoming req see
system.mem_ctrl.rdQLenPdf::20                       0                       # What read queue length does an incoming req see
system.mem_ctrl.rdQLenPdf::21                       0                       # What read queue length does an incoming req see
system.mem_ctrl.rdQLenPdf::22                       0                       # What read queue length does an incoming req see
system.mem_ctrl.rdQLenPdf::23                       0                       # What read queue length does an incoming req see
system.mem_ctrl.rdQLenPdf::24                       0                       # What read queue length does an incoming req see
system.mem_ctrl.rdQLenPdf::25                       0                       # What read queue length does an incoming req see
system.mem_ctrl.rdQLenPdf::26                       0                       # What read queue length does an incoming req see
system.mem_ctrl.rdQLenPdf::27                       0                       # What read queue length does an incoming req see
system.mem_ctrl.rdQLenPdf::28                       0                       # What read queue length does an incoming req see
system.mem_ctrl.rdQLenPdf::29                       0                       # What read queue length does an incoming req see
system.mem_ctrl.rdQLenPdf::30                       0                       # What read queue length does an incoming req see
system.mem_ctrl.rdQLenPdf::31                       0                       # What read queue length does an incoming req see
system.mem_ctrl.wrQLenPdf::0                        0                       # What write queue length does an incoming req see
system.mem_ctrl.wrQLenPdf::1                        0                       # What write queue length does an incoming req see
system.mem_ctrl.wrQLenPdf::2                        0                       # What write queue length does an incoming req see
system.mem_ctrl.wrQLenPdf::3                        0                       # What write queue length does an incoming req see
system.mem_ctrl.wrQLenPdf::4                        0                       # What write queue length does an incoming req see
system.mem_ctrl.wrQLenPdf::5                        0                       # What write queue length does an incoming req see
system.mem_ctrl.wrQLenPdf::6                        0                       # What write queue length does an incoming req see
system.mem_ctrl.wrQLenPdf::7                        0                       # What write queue length does an incoming req see
system.mem_ctrl.wrQLenPdf::8                        0                       # What write queue length does an incoming req see
system.mem_ctrl.wrQLenPdf::9                        0                       # What write queue length does an incoming req see
system.mem_ctrl.wrQLenPdf::10                       0                       # What write queue length does an incoming req see
system.mem_ctrl.wrQLenPdf::11                       0                       # What write queue length does an incoming req see
system.mem_ctrl.wrQLenPdf::12                       0                       # What write queue length does an incoming req see
system.mem_ctrl.wrQLenPdf::13                       0                       # What write queue length does an incoming req see
system.mem_ctrl.wrQLenPdf::14                       0                       # What write queue length does an incoming req see
system.mem_ctrl.wrQLenPdf::15                       0                       # What write queue length does an incoming req see
system.mem_ctrl.wrQLenPdf::16                       0                       # What write queue length does an incoming req see
system.mem_ctrl.wrQLenPdf::17                       0                       # What write queue length does an incoming req see
system.mem_ctrl.wrQLenPdf::18                       0                       # What write queue length does an incoming req see
system.mem_ctrl.wrQLenPdf::19                       0                       # What write queue length does an incoming req see
system.mem_ctrl.wrQLenPdf::20                       0                       # What write queue length does an incoming req see
system.mem_ctrl.wrQLenPdf::21                       0                       # What write queue length does an incoming req see
system.mem_ctrl.wrQLenPdf::22                       0                       # What write queue length does an incoming req see
system.mem_ctrl.wrQLenPdf::23                       0                       # What write queue length does an incoming req see
system.mem_ctrl.wrQLenPdf::24                       0                       # What write queue length does an incoming req see
system.mem_ctrl.wrQLenPdf::25                       0                       # What write queue length does an incoming req see
system.mem_ctrl.wrQLenPdf::26                       0                       # What write queue length does an incoming req see
system.mem_ctrl.wrQLenPdf::27                       0                       # What write queue length does an incoming req see
system.mem_ctrl.wrQLenPdf::28                       0                       # What write queue length does an incoming req see
system.mem_ctrl.wrQLenPdf::29                       0                       # What write queue length does an incoming req see
system.mem_ctrl.wrQLenPdf::30                       0                       # What write queue length does an incoming req see
system.mem_ctrl.wrQLenPdf::31                       0                       # What write queue length does an incoming req see
system.mem_ctrl.wrQLenPdf::32                       0                       # What write queue length does an incoming req see
system.mem_ctrl.wrQLenPdf::33                       0                       # What write queue length does an incoming req see
system.mem_ctrl.wrQLenPdf::34                       0                       # What write queue length does an incoming req see
system.mem_ctrl.wrQLenPdf::35                       0                       # What write queue length does an incoming req see
system.mem_ctrl.wrQLenPdf::36                       0                       # What write queue length does an incoming req see
system.mem_ctrl.wrQLenPdf::37                       0                       # What write queue length does an incoming req see
system.mem_ctrl.wrQLenPdf::38                       0                       # What write queue length does an incoming req see
system.mem_ctrl.wrQLenPdf::39                       0                       # What write queue length does an incoming req see
system.mem_ctrl.wrQLenPdf::40                       0                       # What write queue length does an incoming req see
system.mem_ctrl.wrQLenPdf::41                       0                       # What write queue length does an incoming req see
system.mem_ctrl.wrQLenPdf::42                       0                       # What write queue length does an incoming req see
system.mem_ctrl.wrQLenPdf::43                       0                       # What write queue length does an incoming req see
system.mem_ctrl.wrQLenPdf::44                       0                       # What write queue length does an incoming req see
system.mem_ctrl.wrQLenPdf::45                       0                       # What write queue length does an incoming req see
system.mem_ctrl.wrQLenPdf::46                       0                       # What write queue length does an incoming req see
system.mem_ctrl.wrQLenPdf::47                       0                       # What write queue length does an incoming req see
system.mem_ctrl.wrQLenPdf::48                       0                       # What write queue length does an incoming req see
system.mem_ctrl.wrQLenPdf::49                       0                       # What write queue length does an incoming req see
system.mem_ctrl.wrQLenPdf::50                       0                       # What write queue length does an incoming req see
system.mem_ctrl.wrQLenPdf::51                       0                       # What write queue length does an incoming req see
system.mem_ctrl.wrQLenPdf::52                       0                       # What write queue length does an incoming req see
system.mem_ctrl.wrQLenPdf::53                       0                       # What write queue length does an incoming req see
system.mem_ctrl.wrQLenPdf::54                       0                       # What write queue length does an incoming req see
system.mem_ctrl.wrQLenPdf::55                       0                       # What write queue length does an incoming req see
system.mem_ctrl.wrQLenPdf::56                       0                       # What write queue length does an incoming req see
system.mem_ctrl.wrQLenPdf::57                       0                       # What write queue length does an incoming req see
system.mem_ctrl.wrQLenPdf::58                       0                       # What write queue length does an incoming req see
system.mem_ctrl.wrQLenPdf::59                       0                       # What write queue length does an incoming req see
system.mem_ctrl.wrQLenPdf::60                       0                       # What write queue length does an incoming req see
system.mem_ctrl.wrQLenPdf::61                       0                       # What write queue length does an incoming req see
system.mem_ctrl.wrQLenPdf::62                       0                       # What write queue length does an incoming req see
system.mem_ctrl.wrQLenPdf::63                       0                       # What write queue length does an incoming req see
system.mem_ctrl.bytesPerActivate::samples          978                       # Bytes accessed per row activation
system.mem_ctrl.bytesPerActivate::mean     160.850716                       # Bytes accessed per row activation
system.mem_ctrl.bytesPerActivate::gmean     96.908980                       # Bytes accessed per row activation
system.mem_ctrl.bytesPerActivate::stdev    241.352306                       # Bytes accessed per row activation
system.mem_ctrl.bytesPerActivate::0-127           721     73.72%     73.72% # Bytes accessed per row activation
system.mem_ctrl.bytesPerActivate::128-255          118     12.07%     85.79% # Bytes accessed per row activation
system.mem_ctrl.bytesPerActivate::256-383           28      2.86%     88.65% # Bytes accessed per row activation
system.mem_ctrl.bytesPerActivate::384-511           27      2.76%     91.41% # Bytes accessed per row activation
system.mem_ctrl.bytesPerActivate::512-639           15      1.53%     92.94% # Bytes accessed per row activation
system.mem_ctrl.bytesPerActivate::640-767            4      0.41%     93.35% # Bytes accessed per row activation
system.mem_ctrl.bytesPerActivate::768-895            8      0.82%     94.17% # Bytes accessed per row activation
system.mem_ctrl.bytesPerActivate::896-1023            6      0.61%     94.79% # Bytes accessed per row activation
system.mem_ctrl.bytesPerActivate::1024-1151           51      5.21%    100.00% # Bytes accessed per row activation
system.mem_ctrl.bytesPerActivate::total           978                       # Bytes accessed per row activation
system.mem_ctrl.masterReadBytes::.cpu.inst        52480                       # Per-master bytes read from memory
system.mem_ctrl.masterReadBytes::.cpu.data       107008                       # Per-master bytes read from memory
system.mem_ctrl.masterReadRate::.cpu.inst 3853353.891896608751                       # Per-master bytes read from memory rate (Bytes/sec)
system.mem_ctrl.masterReadRate::.cpu.data 7857082.569818451069                       # Per-master bytes read from memory rate (Bytes/sec)
system.mem_ctrl.masterReadAccesses::.cpu.inst          820                       # Per-master read serviced memory accesses
system.mem_ctrl.masterReadAccesses::.cpu.data         1672                       # Per-master read serviced memory accesses
system.mem_ctrl.masterReadTotalLat::.cpu.inst     42532750                       # Per-master read total memory access latency
system.mem_ctrl.masterReadTotalLat::.cpu.data    100934250                       # Per-master read total memory access latency
system.mem_ctrl.masterReadAvgLat::.cpu.inst     51869.21                       # Per-master read average memory access latency
system.mem_ctrl.masterReadAvgLat::.cpu.data     60367.37                       # Per-master read average memory access latency
system.mem_ctrl.totQLat                      96742000                       # Total ticks spent queuing
system.mem_ctrl.totMemAccLat                143467000                       # Total ticks spent from burst creation until serviced by the DRAM
system.mem_ctrl.totBusLat                    12460000                       # Total ticks spent in databus transfers
system.mem_ctrl.avgQLat                      38821.03                       # Average queueing delay per DRAM burst
system.mem_ctrl.avgBusLat                     5000.00                       # Average bus latency per DRAM burst
system.mem_ctrl.avgMemAccLat                 57571.03                       # Average memory access latency per DRAM burst
system.mem_ctrl.avgRdBW                         11.71                       # Average DRAM read bandwidth in MiByte/s
system.mem_ctrl.avgWrBW                          0.00                       # Average achieved write bandwidth in MiByte/s
system.mem_ctrl.avgRdBWSys                      11.71                       # Average system read bandwidth in MiByte/s
system.mem_ctrl.avgWrBWSys                       0.00                       # Average system write bandwidth in MiByte/s
system.mem_ctrl.peakBW                       12800.00                       # Theoretical peak bandwidth in MiByte/s
system.mem_ctrl.busUtil                          0.09                       # Data bus utilization in percentage
system.mem_ctrl.busUtilRead                      0.09                       # Data bus utilization in percentage for reads
system.mem_ctrl.busUtilWrite                     0.00                       # Data bus utilization in percentage for writes
system.mem_ctrl.avgRdQLen                        1.08                       # Average read queue length when enqueuing
system.mem_ctrl.avgWrQLen                        0.00                       # Average write queue length when enqueuing
system.mem_ctrl.readRowHits                      1504                       # Number of row buffer hits during reads
system.mem_ctrl.writeRowHits                        0                       # Number of row buffer hits during writes
system.mem_ctrl.readRowHitRate                  60.35                       # Row buffer hit rate for reads
system.mem_ctrl.writeRowHitRate                   nan                       # Row buffer hit rate for writes
system.mem_ctrl.avgGap                     5465173.76                       # Average gap between requests
system.mem_ctrl.pageHitRate                     60.35                       # Row buffer hit rate, read and write combined
system.mem_ctrl_0.actEnergy                   5404980                       # Energy for activate commands per rank (pJ)
system.mem_ctrl_0.preEnergy                   2850045                       # Energy for precharge commands per rank (pJ)
system.mem_ctrl_0.readEnergy                 10560060                       # Energy for read commands per rank (pJ)
system.mem_ctrl_0.writeEnergy                       0                       # Energy for write commands per rank (pJ)
system.mem_ctrl_0.refreshEnergy          457906800.000000                       # Energy for refresh commands per rank (pJ)
system.mem_ctrl_0.actBackEnergy             104981460                       # Energy for active background per rank (pJ)
system.mem_ctrl_0.preBackEnergy              17846880                       # Energy for precharge background per rank (pJ)
system.mem_ctrl_0.actPowerDownEnergy       1226385210                       # Energy for active power-down per rank (pJ)
system.mem_ctrl_0.prePowerDownEnergy       1098816480                       # Energy for precharge power-down per rank (pJ)
system.mem_ctrl_0.selfRefreshEnergy        1917491940                       # Energy for self refresh per rank (pJ)
system.mem_ctrl_0.totalEnergy              4842631935                       # Total energy per rank (pJ)
system.mem_ctrl_0.averagePower             355.571163                       # Core power per rank (mW)
system.mem_ctrl_0.totalIdleTime           13341694000                       # Total Idle time Per DRAM Rank
system.mem_ctrl_0.memoryStateTime::IDLE      27792500                       # Time in different power states
system.mem_ctrl_0.memoryStateTime::REF      193700000                       # Time in different power states
system.mem_ctrl_0.memoryStateTime::SREF    7790797750                       # Time in different power states
system.mem_ctrl_0.memoryStateTime::PRE_PDN   2861521500                       # Time in different power states
system.mem_ctrl_0.memoryStateTime::ACT       56069750                       # Time in different power states
system.mem_ctrl_0.memoryStateTime::ACT_PDN   2689423000                       # Time in different power states
system.mem_ctrl_1.actEnergy                   1649340                       # Energy for activate commands per rank (pJ)
system.mem_ctrl_1.preEnergy                    861465                       # Energy for precharge commands per rank (pJ)
system.mem_ctrl_1.readEnergy                  7232820                       # Energy for read commands per rank (pJ)
system.mem_ctrl_1.writeEnergy                       0                       # Energy for write commands per rank (pJ)
system.mem_ctrl_1.refreshEnergy          61464000.000000                       # Energy for refresh commands per rank (pJ)
system.mem_ctrl_1.actBackEnergy              22983540                       # Energy for active background per rank (pJ)
system.mem_ctrl_1.preBackEnergy               3218400                       # Energy for precharge background per rank (pJ)
system.mem_ctrl_1.actPowerDownEnergy        222302850                       # Energy for active power-down per rank (pJ)
system.mem_ctrl_1.prePowerDownEnergy         92629440                       # Energy for precharge power-down per rank (pJ)
system.mem_ctrl_1.selfRefreshEnergy        3089570520                       # Energy for self refresh per rank (pJ)
system.mem_ctrl_1.totalEnergy              3501912375                       # Total energy per rank (pJ)
system.mem_ctrl_1.averagePower             257.128576                       # Core power per rank (mW)
system.mem_ctrl_1.totalIdleTime           13560367750                       # Total Idle time Per DRAM Rank
system.mem_ctrl_1.memoryStateTime::IDLE       5650000                       # Time in different power states
system.mem_ctrl_1.memoryStateTime::REF       26000000                       # Time in different power states
system.mem_ctrl_1.memoryStateTime::SREF   12831793000                       # Time in different power states
system.mem_ctrl_1.memoryStateTime::PRE_PDN    241211000                       # Time in different power states
system.mem_ctrl_1.memoryStateTime::ACT       27053000                       # Time in different power states
system.mem_ctrl_1.memoryStateTime::ACT_PDN    487597500                       # Time in different power states
system.pwrStateResidencyTicks::UNDEFINED  13619304500                       # Cumulative time (in ticks) in various power states
system.cpu.branchPred.lookups                 4346764                       # Number of BP lookups
system.cpu.branchPred.condPredicted           4346764                       # Number of conditional branches predicted
system.cpu.branchPred.condIncorrect            203114                       # Number of conditional branches incorrect
system.cpu.branchPred.BTBLookups              3657668                       # Number of BTB lookups
system.cpu.branchPred.BTBHits                       0                       # Number of BTB hits
system.cpu.branchPred.BTBCorrect                    0                       # Number of correct BTB predictions (this stat may not work properly.
system.cpu.branchPred.BTBHitPct              0.000000                       # BTB Hit Percentage
system.cpu.branchPred.usedRAS                  212094                       # Number of times the RAS was used to get a target.
system.cpu.branchPred.RASInCorrect              21412                       # Number of incorrect RAS predictions.
system.cpu.branchPred.indirectLookups         3657668                       # Number of indirect predictor lookups.
system.cpu.branchPred.indirectHits            1682018                       # Number of indirect target hits.
system.cpu.branchPred.indirectMisses          1975650                       # Number of indirect misses.
system.cpu.branchPredindirectMispredicted        88662                       # Number of mispredicted indirect branches.
system.cpu.dtb.walker.pwrStateResidencyTicks::UNDEFINED  13619304500                       # Cumulative time (in ticks) in various power states
system.cpu.dtb.rdAccesses                     6757342                       # TLB accesses on read requests
system.cpu.dtb.wrAccesses                     2521362                       # TLB accesses on write requests
system.cpu.dtb.rdMisses                          1485                       # TLB misses on read requests
system.cpu.dtb.wrMisses                            70                       # TLB misses on write requests
system.cpu.apic_clk_domain.clock                 8000                       # Clock period in ticks
system.cpu.interrupts.pwrStateResidencyTicks::UNDEFINED  13619304500                       # Cumulative time (in ticks) in various power states
system.cpu.itb.walker.pwrStateResidencyTicks::UNDEFINED  13619304500                       # Cumulative time (in ticks) in various power states
system.cpu.itb.rdAccesses                           0                       # TLB accesses on read requests
system.cpu.itb.wrAccesses                     3443150                       # TLB accesses on write requests
system.cpu.itb.rdMisses                             0                       # TLB misses on read requests
system.cpu.itb.wrMisses                           107                       # TLB misses on write requests
system.cpu.workload.numSyscalls                    23                       # Number of system calls
system.cpu.pwrStateResidencyTicks::ON     13619304500                       # Cumulative time (in ticks) in various power states
system.cpu.numCycles                         27238610                       # number of cpu cycles simulated
system.cpu.numWorkItemsStarted                      0                       # number of work items this cpu started
system.cpu.numWorkItemsCompleted                    0                       # number of work items this cpu completed
system.cpu.fetch.icacheStallCycles             223069                       # Number of cycles fetch is stalled on an Icache miss
system.cpu.fetch.Insts                       25943215                       # Number of instructions fetch has processed
system.cpu.fetch.Branches                     4346764                       # Number of branches that fetch encountered
system.cpu.fetch.predictedBranches            1894112                       # Number of branches that fetch has predicted taken
system.cpu.fetch.Cycles                      26769112                       # Number of cycles fetch has run and was not squashing or blocked
system.cpu.fetch.SquashCycles                  406752                       # Number of cycles fetch has spent squashing
system.cpu.fetch.MiscStallCycles                   27                       # Number of cycles fetch has spent waiting on interrupts, or bad addresses, or out of MSHRs
system.cpu.fetch.PendingTrapStallCycles           824                       # Number of stall cycles due to pending traps
system.cpu.fetch.PendingQuiesceStallCycles           24                       # Number of stall cycles due to pending quiesce instructions
system.cpu.fetch.IcacheWaitRetryStallCycles          137                       # Number of stall cycles due to full MSHR
system.cpu.fetch.CacheLines                   3443100                       # Number of cache lines fetched
system.cpu.fetch.IcacheSquashes                   559                       # Number of outstanding Icache misses that were squashed
system.cpu.fetch.rateDist::samples           27196569                       # Number of instructions fetched each cycle (Total)
system.cpu.fetch.rateDist::mean              1.610202                       # Number of instructions fetched each cycle (Total)
system.cpu.fetch.rateDist::stdev             1.853551                       # Number of instructions fetched each cycle (Total)
system.cpu.fetch.rateDist::underflows               0      0.00%      0.00% # Number of instructions fetched each cycle (Total)
system.cpu.fetch.rateDist::0                 14600995     53.69%     53.69% # Number of instructions fetched each cycle (Total)
system.cpu.fetch.rateDist::1                  1015688      3.73%     57.42% # Number of instructions fetched each cycle (Total)
system.cpu.fetch.rateDist::2                  1230406      4.52%     61.95% # Number of instructions fetched each cycle (Total)
system.cpu.fetch.rateDist::3                  1082462      3.98%     65.93% # Number of instructions fetched each cycle (Total)
system.cpu.fetch.rateDist::4                  9267018     34.07%    100.00% # Number of instructions fetched each cycle (Total)
system.cpu.fetch.rateDist::overflows                0      0.00%    100.00% # Number of instructions fetched each cycle (Total)
system.cpu.fetch.rateDist::min_value                0                       # Number of instructions fetched each cycle (Total)
system.cpu.fetch.rateDist::max_value                4                       # Number of instructions fetched each cycle (Total)
system.cpu.fetch.rateDist::total             27196569                       # Number of instructions fetched each cycle (Total)
system.cpu.fetch.branchRate                  0.159581                       # Number of branch fetches per cycle
system.cpu.fetch.rate                        0.952443                       # Number of inst fetches per cycle
system.cpu.decode.IdleCycles                  3533200                       # Number of cycles decode is idle
system.cpu.decode.BlockedCycles              14190707                       # Number of cycles decode is blocked
system.cpu.decode.RunCycles                   4781549                       # Number of cycles decode is running
system.cpu.decode.UnblockCycles               4487737                       # Number of cycles decode is unblocking
system.cpu.decode.SquashCycles                 203376                       # Number of cycles decode is squashing
system.cpu.decode.DecodedInsts               36276579                       # Number of instructions handled by decode
system.cpu.decode.SquashedInsts                274795                       # Number of squashed instructions handled by decode
system.cpu.rename.SquashCycles                 203376                       # Number of cycles rename is squashing
system.cpu.rename.IdleCycles                  6258971                       # Number of cycles rename is idle
system.cpu.rename.BlockCycles                 6875115                       # Number of cycles rename is blocking
system.cpu.rename.serializeStallCycles           1519                       # count of cycles rename stalled for serializing inst
system.cpu.rename.RunCycles                   6228381                       # Number of cycles rename is running
system.cpu.rename.UnblockCycles               7629207                       # Number of cycles rename is unblocking
system.cpu.rename.RenamedInsts               35300175                       # Number of instructions processed by rename
system.cpu.rename.SquashedInsts                161705                       # Number of squashed instructions processed by rename
system.cpu.rename.ROBFullEvents               6758381                       # Number of times rename has blocked due to ROB full
system.cpu.rename.SQFullEvents                 214805                       # Number of times rename has blocked due to SQ full
system.cpu.rename.RenamedOperands            40609826                       # Number of destination operands rename has renamed
system.cpu.rename.RenameLookups              89543207                       # Number of register rename lookups that rename has made
system.cpu.rename.int_rename_lookups         55375739                       # Number of integer rename lookups
system.cpu.rename.fp_rename_lookups             44143                       # Number of floating rename lookups
system.cpu.rename.CommittedMaps              37258541                       # Number of HB maps that are committed
system.cpu.rename.UndoneMaps                  3351285                       # Number of HB maps that are undone due to squashing
system.cpu.rename.serializingInsts                 37                       # count of serializing insts renamed
system.cpu.rename.tempSerializingInsts             33                       # count of temporary serializing insts renamed
system.cpu.rename.skidInsts                  15045549                       # count of insts added to the skid buffer
system.cpu.memDep0.insertedLoads              6984494                       # Number of loads inserted to the mem dependence unit.
system.cpu.memDep0.insertedStores             2680168                       # Number of stores inserted to the mem dependence unit.
system.cpu.memDep0.conflictingLoads            982429                       # Number of conflicting loads.
system.cpu.memDep0.conflictingStores           244341                       # Number of conflicting stores.
system.cpu.iq.iqInstsAdded                   34849491                       # Number of instructions added to the IQ (excludes non-spec)
system.cpu.iq.iqNonSpecInstsAdded                 566                       # Number of non-speculative instructions added to the IQ
system.cpu.iq.iqInstsIssued                  34203745                       # Number of instructions issued
system.cpu.iq.iqSquashedInstsIssued             23224                       # Number of squashed instructions issued
system.cpu.iq.iqSquashedInstsExamined         2503900                       # Number of squashed instructions iterated over during squash; mainly for profiling
system.cpu.iq.iqSquashedOperandsExamined      2494661                       # Number of squashed operands that are examined and possibly removed from graph
system.cpu.iq.iqSquashedNonSpecRemoved            543                       # Number of squashed non-spec instructions that were removed
system.cpu.iq.issued_per_cycle::samples      27196569                       # Number of insts issued each cycle
system.cpu.iq.issued_per_cycle::mean         1.257649                       # Number of insts issued each cycle
system.cpu.iq.issued_per_cycle::stdev        0.919987                       # Number of insts issued each cycle
system.cpu.iq.issued_per_cycle::underflows            0      0.00%      0.00% # Number of insts issued each cycle
system.cpu.iq.issued_per_cycle::0             6548243     24.08%     24.08% # Number of insts issued each cycle
system.cpu.iq.issued_per_cycle::1             9449668     34.75%     58.82% # Number of insts issued each cycle
system.cpu.iq.issued_per_cycle::2             8845259     32.52%     91.35% # Number of insts issued each cycle
system.cpu.iq.issued_per_cycle::3             2350037      8.64%     99.99% # Number of insts issued each cycle
system.cpu.iq.issued_per_cycle::4                3362      0.01%    100.00% # Number of insts issued each cycle
system.cpu.iq.issued_per_cycle::overflows            0      0.00%    100.00% # Number of insts issued each cycle
system.cpu.iq.issued_per_cycle::min_value            0                       # Number of insts issued each cycle
system.cpu.iq.issued_per_cycle::max_value            4                       # Number of insts issued each cycle
system.cpu.iq.issued_per_cycle::total        27196569                       # Number of insts issued each cycle
system.cpu.iq.fu_full::No_OpClass                   0      0.00%      0.00% # attempts to use FU when none available
system.cpu.iq.fu_full::IntAlu                 3169225     49.22%     49.22% # attempts to use FU when none available
system.cpu.iq.fu_full::IntMult                      0      0.00%     49.22% # attempts to use FU when none available
system.cpu.iq.fu_full::IntDiv                       0      0.00%     49.22% # attempts to use FU when none available
system.cpu.iq.fu_full::FloatAdd                     0      0.00%     49.22% # attempts to use FU when none available
system.cpu.iq.fu_full::FloatCmp                     0      0.00%     49.22% # attempts to use FU when none available
system.cpu.iq.fu_full::FloatCvt                     0      0.00%     49.22% # attempts to use FU when none available
system.cpu.iq.fu_full::FloatMult                    0      0.00%     49.22% # attempts to use FU when none available
system.cpu.iq.fu_full::FloatMultAcc                 0      0.00%     49.22% # attempts to use FU when none available
system.cpu.iq.fu_full::FloatDiv                     0      0.00%     49.22% # attempts to use FU when none available
system.cpu.iq.fu_full::FloatMisc                    0      0.00%     49.22% # attempts to use FU when none available
system.cpu.iq.fu_full::FloatSqrt                    0      0.00%     49.22% # attempts to use FU when none available
system.cpu.iq.fu_full::SimdAdd                    229      0.00%     49.22% # attempts to use FU when none available
system.cpu.iq.fu_full::SimdAddAcc                   0      0.00%     49.22% # attempts to use FU when none available
system.cpu.iq.fu_full::SimdAlu                     66      0.00%     49.22% # attempts to use FU when none available
system.cpu.iq.fu_full::SimdCmp                      0      0.00%     49.22% # attempts to use FU when none available
system.cpu.iq.fu_full::SimdCvt                     45      0.00%     49.22% # attempts to use FU when none available
system.cpu.iq.fu_full::SimdMisc                   131      0.00%     49.22% # attempts to use FU when none available
system.cpu.iq.fu_full::SimdMult                     0      0.00%     49.22% # attempts to use FU when none available
system.cpu.iq.fu_full::SimdMultAcc                  0      0.00%     49.22% # attempts to use FU when none available
system.cpu.iq.fu_full::SimdShift                  138      0.00%     49.23% # attempts to use FU when none available
system.cpu.iq.fu_full::SimdShiftAcc                 0      0.00%     49.23% # attempts to use FU when none available
system.cpu.iq.fu_full::SimdSqrt                     0      0.00%     49.23% # attempts to use FU when none available
system.cpu.iq.fu_full::SimdFloatAdd                 0      0.00%     49.23% # attempts to use FU when none available
system.cpu.iq.fu_full::SimdFloatAlu                 0      0.00%     49.23% # attempts to use FU when none available
system.cpu.iq.fu_full::SimdFloatCmp                 0      0.00%     49.23% # attempts to use FU when none available
system.cpu.iq.fu_full::SimdFloatCvt                 0      0.00%     49.23% # attempts to use FU when none available
system.cpu.iq.fu_full::SimdFloatDiv                 0      0.00%     49.23% # attempts to use FU when none available
system.cpu.iq.fu_full::SimdFloatMisc                0      0.00%     49.23% # attempts to use FU when none available
system.cpu.iq.fu_full::SimdFloatMult                0      0.00%     49.23% # attempts to use FU when none available
system.cpu.iq.fu_full::SimdFloatMultAcc             0      0.00%     49.23% # attempts to use FU when none available
system.cpu.iq.fu_full::SimdFloatSqrt                0      0.00%     49.23% # attempts to use FU when none available
system.cpu.iq.fu_full::SimdAes                      0      0.00%     49.23% # attempts to use FU when none available
system.cpu.iq.fu_full::SimdAesMix                   0      0.00%     49.23% # attempts to use FU when none available
system.cpu.iq.fu_full::SimdSha1Hash                 0      0.00%     49.23% # attempts to use FU when none available
system.cpu.iq.fu_full::SimdSha1Hash2                0      0.00%     49.23% # attempts to use FU when none available
system.cpu.iq.fu_full::SimdSha256Hash               0      0.00%     49.23% # attempts to use FU when none available
system.cpu.iq.fu_full::SimdSha256Hash2              0      0.00%     49.23% # attempts to use FU when none available
system.cpu.iq.fu_full::SimdShaSigma2                0      0.00%     49.23% # attempts to use FU when none available
system.cpu.iq.fu_full::SimdShaSigma3                0      0.00%     49.23% # attempts to use FU when none available
system.cpu.iq.fu_full::MemRead                2849220     44.25%     93.47% # attempts to use FU when none available
system.cpu.iq.fu_full::MemWrite                420392      6.53%    100.00% # attempts to use FU when none available
system.cpu.iq.fu_full::FloatMemRead                 0      0.00%    100.00% # attempts to use FU when none available
system.cpu.iq.fu_full::FloatMemWrite                0      0.00%    100.00% # attempts to use FU when none available
system.cpu.iq.fu_full::IprAccess                    0      0.00%    100.00% # attempts to use FU when none available
system.cpu.iq.fu_full::InstPrefetch                 0      0.00%    100.00% # attempts to use FU when none available
system.cpu.iq.FU_type_0::No_OpClass             17028      0.05%      0.05% # Type of FU issued
system.cpu.iq.FU_type_0::IntAlu              24732181     72.31%     72.36% # Type of FU issued
system.cpu.iq.FU_type_0::IntMult                58963      0.17%     72.53% # Type of FU issued
system.cpu.iq.FU_type_0::IntDiv                    30      0.00%     72.53% # Type of FU issued
system.cpu.iq.FU_type_0::FloatAdd               10017      0.03%     72.56% # Type of FU issued
system.cpu.iq.FU_type_0::FloatCmp                   0      0.00%     72.56% # Type of FU issued
system.cpu.iq.FU_type_0::FloatCvt                   0      0.00%     72.56% # Type of FU issued
system.cpu.iq.FU_type_0::FloatMult                  0      0.00%     72.56% # Type of FU issued
system.cpu.iq.FU_type_0::FloatMultAcc               0      0.00%     72.56% # Type of FU issued
system.cpu.iq.FU_type_0::FloatDiv                   0      0.00%     72.56% # Type of FU issued
system.cpu.iq.FU_type_0::FloatMisc                  0      0.00%     72.56% # Type of FU issued
system.cpu.iq.FU_type_0::FloatSqrt                  0      0.00%     72.56% # Type of FU issued
system.cpu.iq.FU_type_0::SimdAdd                  376      0.00%     72.56% # Type of FU issued
system.cpu.iq.FU_type_0::SimdAddAcc                 0      0.00%     72.56% # Type of FU issued
system.cpu.iq.FU_type_0::SimdAlu                   97      0.00%     72.56% # Type of FU issued
system.cpu.iq.FU_type_0::SimdCmp                    0      0.00%     72.56% # Type of FU issued
system.cpu.iq.FU_type_0::SimdCvt                  146      0.00%     72.56% # Type of FU issued
system.cpu.iq.FU_type_0::SimdMisc                 257      0.00%     72.56% # Type of FU issued
system.cpu.iq.FU_type_0::SimdMult                   0      0.00%     72.56% # Type of FU issued
system.cpu.iq.FU_type_0::SimdMultAcc                0      0.00%     72.56% # Type of FU issued
system.cpu.iq.FU_type_0::SimdShift                186      0.00%     72.56% # Type of FU issued
system.cpu.iq.FU_type_0::SimdShiftAcc               0      0.00%     72.56% # Type of FU issued
system.cpu.iq.FU_type_0::SimdSqrt                   0      0.00%     72.56% # Type of FU issued
system.cpu.iq.FU_type_0::SimdFloatAdd               0      0.00%     72.56% # Type of FU issued
system.cpu.iq.FU_type_0::SimdFloatAlu               0      0.00%     72.56% # Type of FU issued
system.cpu.iq.FU_type_0::SimdFloatCmp               0      0.00%     72.56% # Type of FU issued
system.cpu.iq.FU_type_0::SimdFloatCvt               0      0.00%     72.56% # Type of FU issued
system.cpu.iq.FU_type_0::SimdFloatDiv               0      0.00%     72.56% # Type of FU issued
system.cpu.iq.FU_type_0::SimdFloatMisc              0      0.00%     72.56% # Type of FU issued
system.cpu.iq.FU_type_0::SimdFloatMult              0      0.00%     72.56% # Type of FU issued
system.cpu.iq.FU_type_0::SimdFloatMultAcc            0      0.00%     72.56% # Type of FU issued
system.cpu.iq.FU_type_0::SimdFloatSqrt              0      0.00%     72.56% # Type of FU issued
system.cpu.iq.FU_type_0::SimdAes                    0      0.00%     72.56% # Type of FU issued
system.cpu.iq.FU_type_0::SimdAesMix                 0      0.00%     72.56% # Type of FU issued
system.cpu.iq.FU_type_0::SimdSha1Hash               0      0.00%     72.56% # Type of FU issued
system.cpu.iq.FU_type_0::SimdSha1Hash2              0      0.00%     72.56% # Type of FU issued
system.cpu.iq.FU_type_0::SimdSha256Hash             0      0.00%     72.56% # Type of FU issued
system.cpu.iq.FU_type_0::SimdSha256Hash2            0      0.00%     72.56% # Type of FU issued
system.cpu.iq.FU_type_0::SimdShaSigma2              0      0.00%     72.56% # Type of FU issued
system.cpu.iq.FU_type_0::SimdShaSigma3              0      0.00%     72.56% # Type of FU issued
system.cpu.iq.FU_type_0::MemRead              6806411     19.90%     92.46% # Type of FU issued
system.cpu.iq.FU_type_0::MemWrite             2497465      7.30%     99.76% # Type of FU issued
system.cpu.iq.FU_type_0::FloatMemRead           40119      0.12%     99.88% # Type of FU issued
system.cpu.iq.FU_type_0::FloatMemWrite          40469      0.12%    100.00% # Type of FU issued
system.cpu.iq.FU_type_0::IprAccess                  0      0.00%    100.00% # Type of FU issued
system.cpu.iq.FU_type_0::InstPrefetch               0      0.00%    100.00% # Type of FU issued
system.cpu.iq.FU_type_0::total               34203745                       # Type of FU issued
system.cpu.iq.rate                           1.255708                       # Inst issue rate
system.cpu.iq.fu_busy_cnt                     6439446                       # FU busy when requested
system.cpu.iq.fu_busy_rate                   0.188267                       # FU busy rate (busy events/executed inst)
system.cpu.iq.int_inst_queue_reads          101881631                       # Number of integer instruction queue reads
system.cpu.iq.int_inst_queue_writes          37261912                       # Number of integer instruction queue writes
system.cpu.iq.int_inst_queue_wakeup_accesses     33624969                       # Number of integer instruction queue wakeup accesses
system.cpu.iq.fp_inst_queue_reads              185098                       # Number of floating instruction queue reads
system.cpu.iq.fp_inst_queue_writes              92311                       # Number of floating instruction queue writes
system.cpu.iq.fp_inst_queue_wakeup_accesses        92166                       # Number of floating instruction queue wakeup accesses
system.cpu.iq.vec_inst_queue_reads                  0                       # Number of vector instruction queue reads
system.cpu.iq.vec_inst_queue_writes                 0                       # Number of vector instruction queue writes
system.cpu.iq.vec_inst_queue_wakeup_accesses            0                       # Number of vector instruction queue wakeup accesses
system.cpu.iq.int_alu_accesses               40533264                       # Number of integer alu accesses
system.cpu.iq.fp_alu_accesses                   92899                       # Number of floating point alu accesses
system.cpu.iq.vec_alu_accesses                      0                       # Number of vector alu accesses
system.cpu.iew.lsq.thread0.forwLoads           689691                       # Number of loads that had data forwarded from stores
system.cpu.iew.lsq.thread0.invAddrLoads             0                       # Number of loads ignored due to an invalid address
system.cpu.iew.lsq.thread0.squashedLoads       764598                       # Number of loads squashed
system.cpu.iew.lsq.thread0.ignoredResponses         2599                       # Number of memory responses ignored because the instruction is squashed
system.cpu.iew.lsq.thread0.memOrderViolation          266                       # Number of memory ordering violations
system.cpu.iew.lsq.thread0.squashedStores       199759                       # Number of stores squashed
system.cpu.iew.lsq.thread0.invAddrSwpfs             0                       # Number of software prefetches ignored due to an invalid address
system.cpu.iew.lsq.thread0.blockedLoads             0                       # Number of blocked loads due to partial load-store forwarding
system.cpu.iew.lsq.thread0.rescheduledLoads            1                       # Number of loads that were rescheduled
system.cpu.iew.lsq.thread0.cacheBlocked             8                       # Number of times an access to memory failed due to the cache being blocked
system.cpu.iew.iewIdleCycles                        0                       # Number of cycles IEW is idle
system.cpu.iew.iewSquashCycles                 203376                       # Number of cycles IEW is squashing
system.cpu.iew.iewBlockCycles                       0                       # Number of cycles IEW is blocking
system.cpu.iew.iewUnblockCycles                  1737                       # Number of cycles IEW is unblocking
system.cpu.iew.iewDispatchedInsts            34850057                       # Number of instructions dispatched to IQ
system.cpu.iew.iewDispSquashedInsts            334892                       # Number of squashed instructions skipped by dispatch
system.cpu.iew.iewDispLoadInsts               6984494                       # Number of dispatched load instructions
system.cpu.iew.iewDispStoreInsts              2680168                       # Number of dispatched store instructions
system.cpu.iew.iewDispNonSpecInsts                212                       # Number of dispatched non-speculative instructions
system.cpu.iew.iewIQFullEvents                      0                       # Number of times the IQ has become full, causing a stall
system.cpu.iew.iewLSQFullEvents                  1729                       # Number of times the LSQ has become full, causing a stall
system.cpu.iew.memOrderViolationEvents            266                       # Number of memory order violations
system.cpu.iew.predictedTakenIncorrect          77593                       # Number of branches that were predicted taken incorrectly
system.cpu.iew.predictedNotTakenIncorrect       138381                       # Number of branches that were predicted not taken incorrectly
system.cpu.iew.branchMispredicts               215974                       # Number of branch mispredicts detected at execute
system.cpu.iew.iewExecutedInsts              33794819                       # Number of executed instructions
system.cpu.iew.iewExecLoadInsts               6757321                       # Number of load instructions executed
system.cpu.iew.iewExecSquashedInsts            408926                       # Number of squashed instructions skipped in execute
system.cpu.iew.exec_swp                             0                       # number of swp insts executed
system.cpu.iew.exec_nop                             0                       # number of nop insts executed
system.cpu.iew.exec_refs                      9278683                       # number of memory reference insts executed
system.cpu.iew.exec_branches                  3477055                       # Number of branches executed
system.cpu.iew.exec_stores                    2521362                       # Number of stores executed
system.cpu.iew.exec_rate                     1.240695                       # Inst execution rate
system.cpu.iew.wb_sent                       33718661                       # cumulative count of insts sent to commit
system.cpu.iew.wb_count                      33717135                       # cumulative count of insts written-back
system.cpu.iew.wb_producers                  24404561                       # num instructions producing a value
system.cpu.iew.wb_consumers                  32148805                       # num instructions consuming a value
system.cpu.iew.wb_rate                       1.237843                       # insts written-back per cycle
system.cpu.iew.wb_fanout                     0.759113                       # average fanout of values written-back
system.cpu.commit.commitSquashedInsts         2304895                       # The number of squashed insts skipped by commit
system.cpu.commit.commitNonSpecStalls              23                       # The number of times commit has been forced to stall to communicate backwards
system.cpu.commit.branchMispredicts            203134                       # The number of times a branch was mispredicted
system.cpu.commit.committed_per_cycle::samples     26993193                       # Number of insts commited each cycle
system.cpu.commit.committed_per_cycle::mean     1.198308                       # Number of insts commited each cycle
system.cpu.commit.committed_per_cycle::stdev     1.430205                       # Number of insts commited each cycle
system.cpu.commit.committed_per_cycle::underflows            0      0.00%      0.00% # Number of insts commited each cycle
system.cpu.commit.committed_per_cycle::0     12993938     48.14%     48.14% # Number of insts commited each cycle
system.cpu.commit.committed_per_cycle::1      4952695     18.35%     66.49% # Number of insts commited each cycle
system.cpu.commit.committed_per_cycle::2      2913339     10.79%     77.28% # Number of insts commited each cycle
system.cpu.commit.committed_per_cycle::3      2966101     10.99%     88.27% # Number of insts commited each cycle
system.cpu.commit.committed_per_cycle::4      3167120     11.73%    100.00% # Number of insts commited each cycle
system.cpu.commit.committed_per_cycle::overflows            0      0.00%    100.00% # Number of insts commited each cycle
system.cpu.commit.committed_per_cycle::min_value            0                       # Number of insts commited each cycle
system.cpu.commit.committed_per_cycle::max_value            4                       # Number of insts commited each cycle
system.cpu.commit.committed_per_cycle::total     26993193                       # Number of insts commited each cycle
system.cpu.commit.committedInsts             18836239                       # Number of instructions committed
system.cpu.commit.committedOps               32346156                       # Number of ops (including micro ops) committed
system.cpu.commit.swp_count                         0                       # Number of s/w prefetches committed
system.cpu.commit.refs                        8700305                       # Number of memory references committed
system.cpu.commit.loads                       6219896                       # Number of loads committed
system.cpu.commit.membars                           0                       # Number of memory barriers committed
system.cpu.commit.branches                    3419410                       # Number of branches committed
system.cpu.commit.vec_insts                         0                       # Number of committed Vector instructions.
system.cpu.commit.fp_insts                      92099                       # Number of committed floating point instructions.
system.cpu.commit.int_insts                  32294501                       # Number of committed integer instructions.
system.cpu.commit.function_calls               120304                       # Number of function calls committed.
system.cpu.commit.op_class_0::No_OpClass        10140      0.03%      0.03% # Class of committed instruction
system.cpu.commit.op_class_0::IntAlu         23565672     72.85%     72.89% # Class of committed instruction
system.cpu.commit.op_class_0::IntMult           58948      0.18%     73.07% # Class of committed instruction
system.cpu.commit.op_class_0::IntDiv               28      0.00%     73.07% # Class of committed instruction
system.cpu.commit.op_class_0::FloatAdd          10014      0.03%     73.10% # Class of committed instruction
system.cpu.commit.op_class_0::FloatCmp              0      0.00%     73.10% # Class of committed instruction
system.cpu.commit.op_class_0::FloatCvt              0      0.00%     73.10% # Class of committed instruction
system.cpu.commit.op_class_0::FloatMult             0      0.00%     73.10% # Class of committed instruction
system.cpu.commit.op_class_0::FloatMultAcc            0      0.00%     73.10% # Class of committed instruction
system.cpu.commit.op_class_0::FloatDiv              0      0.00%     73.10% # Class of committed instruction
system.cpu.commit.op_class_0::FloatMisc             0      0.00%     73.10% # Class of committed instruction
system.cpu.commit.op_class_0::FloatSqrt             0      0.00%     73.10% # Class of committed instruction
system.cpu.commit.op_class_0::SimdAdd             374      0.00%     73.10% # Class of committed instruction
system.cpu.commit.op_class_0::SimdAddAcc            0      0.00%     73.10% # Class of committed instruction
system.cpu.commit.op_class_0::SimdAlu              94      0.00%     73.10% # Class of committed instruction
system.cpu.commit.op_class_0::SimdCmp               0      0.00%     73.10% # Class of committed instruction
system.cpu.commit.op_class_0::SimdCvt             140      0.00%     73.10% # Class of committed instruction
system.cpu.commit.op_class_0::SimdMisc            255      0.00%     73.10% # Class of committed instruction
system.cpu.commit.op_class_0::SimdMult              0      0.00%     73.10% # Class of committed instruction
system.cpu.commit.op_class_0::SimdMultAcc            0      0.00%     73.10% # Class of committed instruction
system.cpu.commit.op_class_0::SimdShift           186      0.00%     73.10% # Class of committed instruction
system.cpu.commit.op_class_0::SimdShiftAcc            0      0.00%     73.10% # Class of committed instruction
system.cpu.commit.op_class_0::SimdSqrt              0      0.00%     73.10% # Class of committed instruction
system.cpu.commit.op_class_0::SimdFloatAdd            0      0.00%     73.10% # Class of committed instruction
system.cpu.commit.op_class_0::SimdFloatAlu            0      0.00%     73.10% # Class of committed instruction
system.cpu.commit.op_class_0::SimdFloatCmp            0      0.00%     73.10% # Class of committed instruction
system.cpu.commit.op_class_0::SimdFloatCvt            0      0.00%     73.10% # Class of committed instruction
system.cpu.commit.op_class_0::SimdFloatDiv            0      0.00%     73.10% # Class of committed instruction
system.cpu.commit.op_class_0::SimdFloatMisc            0      0.00%     73.10% # Class of committed instruction
system.cpu.commit.op_class_0::SimdFloatMult            0      0.00%     73.10% # Class of committed instruction
system.cpu.commit.op_class_0::SimdFloatMultAcc            0      0.00%     73.10% # Class of committed instruction
system.cpu.commit.op_class_0::SimdFloatSqrt            0      0.00%     73.10% # Class of committed instruction
system.cpu.commit.op_class_0::SimdAes               0      0.00%     73.10% # Class of committed instruction
system.cpu.commit.op_class_0::SimdAesMix            0      0.00%     73.10% # Class of committed instruction
system.cpu.commit.op_class_0::SimdSha1Hash            0      0.00%     73.10% # Class of committed instruction
system.cpu.commit.op_class_0::SimdSha1Hash2            0      0.00%     73.10% # Class of committed instruction
system.cpu.commit.op_class_0::SimdSha256Hash            0      0.00%     73.10% # Class of committed instruction
system.cpu.commit.op_class_0::SimdSha256Hash2            0      0.00%     73.10% # Class of committed instruction
system.cpu.commit.op_class_0::SimdShaSigma2            0      0.00%     73.10% # Class of committed instruction
system.cpu.commit.op_class_0::SimdShaSigma3            0      0.00%     73.10% # Class of committed instruction
system.cpu.commit.op_class_0::MemRead         6179810     19.11%     92.21% # Class of committed instruction
system.cpu.commit.op_class_0::MemWrite        2439984      7.54%     99.75% # Class of committed instruction
system.cpu.commit.op_class_0::FloatMemRead        40086      0.12%     99.88% # Class of committed instruction
system.cpu.commit.op_class_0::FloatMemWrite        40425      0.12%    100.00% # Class of committed instruction
system.cpu.commit.op_class_0::IprAccess             0      0.00%    100.00% # Class of committed instruction
system.cpu.commit.op_class_0::InstPrefetch            0      0.00%    100.00% # Class of committed instruction
system.cpu.commit.op_class_0::total          32346156                       # Class of committed instruction
system.cpu.commit.bw_lim_events               3167120                       # number cycles where commit BW limit reached
system.cpu.rob.rob_reads                     58477124                       # The number of ROB reads
system.cpu.rob.rob_writes                    69505478                       # The number of ROB writes
system.cpu.timesIdled                             455                       # Number of times that the entire CPU went into an idle state and unscheduled itself
system.cpu.idleCycles                           42041                       # Total number of cycles that the CPU has spent unscheduled due to idling
system.cpu.committedInsts                    18836239                       # Number of Instructions Simulated
system.cpu.committedOps                      32346156                       # Number of Ops (including micro ops) Simulated
system.cpu.cpi                               1.446075                       # CPI: Cycles Per Instruction
system.cpu.cpi_total                         1.446075                       # CPI: Total CPI of All Threads
system.cpu.ipc                               0.691527                       # IPC: Instructions Per Cycle
system.cpu.ipc_total                         0.691527                       # IPC: Total IPC of All Threads
system.cpu.int_regfile_reads                 52556809                       # number of integer regfile reads
system.cpu.int_regfile_writes                27655129                       # number of integer regfile writes
system.cpu.fp_regfile_reads                     44080                       # number of floating regfile reads
system.cpu.fp_regfile_writes                    51638                       # number of floating regfile writes
system.cpu.cc_regfile_reads                  16703159                       # number of cc regfile reads
system.cpu.cc_regfile_writes                 11009922                       # number of cc regfile writes
system.cpu.misc_regfile_reads                16359492                       # number of misc regfile reads
system.cpu.dcache.tags.pwrStateResidencyTicks::UNDEFINED  13619304500                       # Cumulative time (in ticks) in various power states
system.cpu.dcache.tags.tagsinuse           501.137629                       # Cycle average of tags in use
system.cpu.dcache.tags.total_refs             8546283                       # Total number of references to valid blocks.
system.cpu.dcache.tags.sampled_refs              6473                       # Sample count of references to valid blocks.
system.cpu.dcache.tags.avg_refs           1320.297080                       # Average number of references to valid blocks.
system.cpu.dcache.tags.warmup_cycle            169500                       # Cycle when the warmup percentage was hit.
system.cpu.dcache.tags.occ_blocks::.cpu.data   501.137629                       # Average occupied blocks per requestor
system.cpu.dcache.tags.occ_percent::.cpu.data     0.978784                       # Average percentage of cache occupancy
system.cpu.dcache.tags.occ_percent::total     0.978784                       # Average percentage of cache occupancy
system.cpu.dcache.tags.occ_task_id_blocks::1024          512                       # Occupied blocks per task id
system.cpu.dcache.tags.age_task_id_blocks_1024::0           78                       # Occupied blocks per task id
system.cpu.dcache.tags.age_task_id_blocks_1024::1          392                       # Occupied blocks per task id
system.cpu.dcache.tags.age_task_id_blocks_1024::2           41                       # Occupied blocks per task id
system.cpu.dcache.tags.age_task_id_blocks_1024::4            1                       # Occupied blocks per task id
system.cpu.dcache.tags.occ_task_id_percent::1024            1                       # Percentage of cache occupancy per task id
system.cpu.dcache.tags.tag_accesses          68379145                       # Number of tag accesses
system.cpu.dcache.tags.data_accesses         68379145                       # Number of data accesses
system.cpu.dcache.pwrStateResidencyTicks::UNDEFINED  13619304500                       # Cumulative time (in ticks) in various power states
system.cpu.dcache.ReadReq_hits::.cpu.data      6062686                       # number of ReadReq hits
system.cpu.dcache.ReadReq_hits::total         6062686                       # number of ReadReq hits
system.cpu.dcache.WriteReq_hits::.cpu.data      2477124                       # number of WriteReq hits
system.cpu.dcache.WriteReq_hits::total        2477124                       # number of WriteReq hits
system.cpu.dcache.demand_hits::.cpu.data      8539810                       # number of demand (read+write) hits
system.cpu.dcache.demand_hits::total          8539810                       # number of demand (read+write) hits
system.cpu.dcache.overall_hits::.cpu.data      8539810                       # number of overall hits
system.cpu.dcache.overall_hits::total         8539810                       # number of overall hits
system.cpu.dcache.ReadReq_misses::.cpu.data         3489                       # number of ReadReq misses
system.cpu.dcache.ReadReq_misses::total          3489                       # number of ReadReq misses
system.cpu.dcache.WriteReq_misses::.cpu.data         3285                       # number of WriteReq misses
system.cpu.dcache.WriteReq_misses::total         3285                       # number of WriteReq misses
system.cpu.dcache.demand_misses::.cpu.data         6774                       # number of demand (read+write) misses
system.cpu.dcache.demand_misses::total           6774                       # number of demand (read+write) misses
system.cpu.dcache.overall_misses::.cpu.data         6774                       # number of overall misses
system.cpu.dcache.overall_misses::total          6774                       # number of overall misses
system.cpu.dcache.ReadReq_miss_latency::.cpu.data     73106500                       # number of ReadReq miss cycles
system.cpu.dcache.ReadReq_miss_latency::total     73106500                       # number of ReadReq miss cycles
system.cpu.dcache.WriteReq_miss_latency::.cpu.data    181627000                       # number of WriteReq miss cycles
system.cpu.dcache.WriteReq_miss_latency::total    181627000                       # number of WriteReq miss cycles
system.cpu.dcache.demand_miss_latency::.cpu.data    254733500                       # number of demand (read+write) miss cycles
system.cpu.dcache.demand_miss_latency::total    254733500                       # number of demand (read+write) miss cycles
system.cpu.dcache.overall_miss_latency::.cpu.data    254733500                       # number of overall miss cycles
system.cpu.dcache.overall_miss_latency::total    254733500                       # number of overall miss cycles
system.cpu.dcache.ReadReq_accesses::.cpu.data      6066175                       # number of ReadReq accesses(hits+misses)
system.cpu.dcache.ReadReq_accesses::total      6066175                       # number of ReadReq accesses(hits+misses)
system.cpu.dcache.WriteReq_accesses::.cpu.data      2480409                       # number of WriteReq accesses(hits+misses)
system.cpu.dcache.WriteReq_accesses::total      2480409                       # number of WriteReq accesses(hits+misses)
system.cpu.dcache.demand_accesses::.cpu.data      8546584                       # number of demand (read+write) accesses
system.cpu.dcache.demand_accesses::total      8546584                       # number of demand (read+write) accesses
system.cpu.dcache.overall_accesses::.cpu.data      8546584                       # number of overall (read+write) accesses
system.cpu.dcache.overall_accesses::total      8546584                       # number of overall (read+write) accesses
system.cpu.dcache.ReadReq_miss_rate::.cpu.data     0.000575                       # miss rate for ReadReq accesses
system.cpu.dcache.ReadReq_miss_rate::total     0.000575                       # miss rate for ReadReq accesses
system.cpu.dcache.WriteReq_miss_rate::.cpu.data     0.001324                       # miss rate for WriteReq accesses
system.cpu.dcache.WriteReq_miss_rate::total     0.001324                       # miss rate for WriteReq accesses
system.cpu.dcache.demand_miss_rate::.cpu.data     0.000793                       # miss rate for demand accesses
system.cpu.dcache.demand_miss_rate::total     0.000793                       # miss rate for demand accesses
system.cpu.dcache.overall_miss_rate::.cpu.data     0.000793                       # miss rate for overall accesses
system.cpu.dcache.overall_miss_rate::total     0.000793                       # miss rate for overall accesses
system.cpu.dcache.ReadReq_avg_miss_latency::.cpu.data 20953.425050                       # average ReadReq miss latency
[...]
system.l3bus.snoop_fanout::min_value                0                       # Request fanout histogram
system.l3bus.snoop_fanout::max_value                0                       # Request fanout histogram
system.l3bus.snoop_fanout::total                 2492                       # Request fanout histogram
system.l3bus.reqLayer0.occupancy              1247000                       # Layer occupancy (ticks)
system.l3bus.reqLayer0.utilization                0.0                       # Layer utilization (%)
system.l3bus.respLayer0.occupancy             6230000                       # Layer occupancy (ticks)
system.l3bus.respLayer0.utilization               0.0                       # Layer utilization (%)
system.l3cache.tags.pwrStateResidencyTicks::UNDEFINED  13619304500                       # Cumulative time (in ticks) in various power states
system.l3cache.tags.tagsinuse             1734.254457                       # Cycle average of tags in use
system.l3cache.tags.total_refs                   2492                       # Total number of references to valid blocks.
system.l3cache.tags.sampled_refs                 2492                       # Sample count of references to valid blocks.
system.l3cache.tags.avg_refs                        1                       # Average number of references to valid blocks.
system.l3cache.tags.warmup_cycle                76000                       # Cycle when the warmup percentage was hit.
system.l3cache.tags.occ_blocks::.cpu.inst   722.181148                       # Average occupied blocks per requestor
system.l3cache.tags.occ_blocks::.cpu.data  1012.073309                       # Average occupied blocks per requestor
system.l3cache.tags.occ_percent::.cpu.inst     0.022039                       # Average percentage of cache occupancy
system.l3cache.tags.occ_percent::.cpu.data     0.030886                       # Average percentage of cache occupancy
system.l3cache.tags.occ_percent::total       0.052925                       # Average percentage of cache occupancy
system.l3cache.tags.occ_task_id_blocks::1024         2492                       # Occupied blocks per task id
system.l3cache.tags.age_task_id_blocks_1024::0           66                       # Occupied blocks per task id
system.l3cache.tags.age_task_id_blocks_1024::2          315                       # Occupied blocks per task id
system.l3cache.tags.age_task_id_blocks_1024::3          637                       # Occupied blocks per task id
system.l3cache.tags.age_task_id_blocks_1024::4         1474                       # Occupied blocks per task id
system.l3cache.tags.occ_task_id_percent::1024     0.076050                       # Percentage of cache occupancy per task id
system.l3cache.tags.tag_accesses                42364                       # Number of tag accesses
system.l3cache.tags.data_accesses               42364                       # Number of data accesses
system.l3cache.pwrStateResidencyTicks::UNDEFINED  13619304500                       # Cumulative time (in ticks) in various power states
system.l3cache.ReadExReq_misses::.cpu.data         1399                       # number of ReadExReq misses
system.l3cache.ReadExReq_misses::total           1399                       # number of ReadExReq misses
system.l3cache.ReadSharedReq_misses::.cpu.inst          820                       # number of ReadSharedReq misses
system.l3cache.ReadSharedReq_misses::.cpu.data          273                       # number of ReadSharedReq misses
system.l3cache.ReadSharedReq_misses::total         1093                       # number of ReadSharedReq misses
system.l3cache.demand_misses::.cpu.inst           820                       # number of demand (read+write) misses
system.l3cache.demand_misses::.cpu.data          1672                       # number of demand (read+write) misses
system.l3cache.demand_misses::total              2492                       # number of demand (read+write) misses
system.l3cache.overall_misses::.cpu.inst          820                       # number of overall misses
system.l3cache.overall_misses::.cpu.data         1672                       # number of overall misses
system.l3cache.overall_misses::total             2492                       # number of overall misses
system.l3cache.ReadExReq_miss_latency::.cpu.data    139035500                       # number of ReadExReq miss cycles
system.l3cache.ReadExReq_miss_latency::total    139035500                       # number of ReadExReq miss cycles
system.l3cache.ReadSharedReq_miss_latency::.cpu.inst     73054000                       # number of ReadSharedReq miss cycles
system.l3cache.ReadSharedReq_miss_latency::.cpu.data     24005000                       # number of ReadSharedReq miss cycles
system.l3cache.ReadSharedReq_miss_latency::total     97059000                       # number of ReadSharedReq miss cycles
system.l3cache.demand_miss_latency::.cpu.inst     73054000                       # number of demand (read+write) miss cycles
system.l3cache.demand_miss_latency::.cpu.data    163040500                       # number of demand (read+write) miss cycles
system.l3cache.demand_miss_latency::total    236094500                       # number of demand (read+write) miss cycles
system.l3cache.overall_miss_latency::.cpu.inst     73054000                       # number of overall miss cycles
system.l3cache.overall_miss_latency::.cpu.data    163040500                       # number of overall miss cycles
system.l3cache.overall_miss_latency::total    236094500                       # number of overall miss cycles
system.l3cache.ReadExReq_accesses::.cpu.data         1399                       # number of ReadExReq accesses(hits+misses)
system.l3cache.ReadExReq_accesses::total         1399                       # number of ReadExReq accesses(hits+misses)
system.l3cache.ReadSharedReq_accesses::.cpu.inst          820                       # number of ReadSharedReq accesses(hits+misses)
system.l3cache.ReadSharedReq_accesses::.cpu.data          273                       # number of ReadSharedReq accesses(hits+misses)
system.l3cache.ReadSharedReq_accesses::total         1093                       # number of ReadSharedReq accesses(hits+misses)
system.l3cache.demand_accesses::.cpu.inst          820                       # number of demand (read+write) accesses
system.l3cache.demand_accesses::.cpu.data         1672                       # number of demand (read+write) accesses
system.l3cache.demand_accesses::total            2492                       # number of demand (read+write) accesses
system.l3cache.overall_accesses::.cpu.inst          820                       # number of overall (read+write) accesses
system.l3cache.overall_accesses::.cpu.data         1672                       # number of overall (read+write) accesses
system.l3cache.overall_accesses::total           2492                       # number of overall (read+write) accesses
system.l3cache.ReadExReq_miss_rate::.cpu.data            1                       # miss rate for ReadExReq accesses
system.l3cache.ReadExReq_miss_rate::total            1                       # miss rate for ReadExReq accesses
system.l3cache.ReadSharedReq_miss_rate::.cpu.inst            1                       # miss rate for ReadSharedReq accesses
system.l3cache.ReadSharedReq_miss_rate::.cpu.data            1                       # miss rate for ReadSharedReq accesses
system.l3cache.ReadSharedReq_miss_rate::total            1                       # miss rate for ReadSharedReq accesses
system.l3cache.demand_miss_rate::.cpu.inst            1                       # miss rate for demand accesses
system.l3cache.demand_miss_rate::.cpu.data            1                       # miss rate for demand accesses
system.l3cache.demand_miss_rate::total              1                       # miss rate for demand accesses
system.l3cache.overall_miss_rate::.cpu.inst            1                       # miss rate for overall accesses
system.l3cache.overall_miss_rate::.cpu.data            1                       # miss rate for overall accesses
system.l3cache.overall_miss_rate::total             1                       # miss rate for overall accesses
system.l3cache.ReadExReq_avg_miss_latency::.cpu.data 99382.058613                       # average ReadExReq miss latency
system.l3cache.ReadExReq_avg_miss_latency::total 99382.058613                       # average ReadExReq miss latency
system.l3cache.ReadSharedReq_avg_miss_latency::.cpu.inst 89090.243902                       # average ReadSharedReq miss latency
system.l3cache.ReadSharedReq_avg_miss_latency::.cpu.data 87930.402930                       # average ReadSharedReq miss latency
system.l3cache.ReadSharedReq_avg_miss_latency::total 88800.548948                       # average ReadSharedReq miss latency
system.l3cache.demand_avg_miss_latency::.cpu.inst 89090.243902                       # average overall miss latency
system.l3cache.demand_avg_miss_latency::.cpu.data 97512.260766                       # average overall miss latency
system.l3cache.demand_avg_miss_latency::total 94740.971108                       # average overall miss latency
system.l3cache.overall_avg_miss_latency::.cpu.inst 89090.243902                       # average overall miss latency
system.l3cache.overall_avg_miss_latency::.cpu.data 97512.260766                       # average overall miss latency
system.l3cache.overall_avg_miss_latency::total 94740.971108                       # average overall miss latency
system.l3cache.blocked_cycles::no_mshrs             0                       # number of cycles access was blocked
system.l3cache.blocked_cycles::no_targets            0                       # number of cycles access was blocked
system.l3cache.blocked::no_mshrs                    0                       # number of cycles access was blocked
system.l3cache.blocked::no_targets                  0                       # number of cycles access was blocked
system.l3cache.avg_blocked_cycles::no_mshrs          nan                       # average number of cycles each access was blocked
system.l3cache.avg_blocked_cycles::no_targets          nan                       # average number of cycles each access was blocked
system.l3cache.ReadExReq_mshr_misses::.cpu.data         1399                       # number of ReadExReq MSHR misses
system.l3cache.ReadExReq_mshr_misses::total         1399                       # number of ReadExReq MSHR misses
system.l3cache.ReadSharedReq_mshr_misses::.cpu.inst          820                       # number of ReadSharedReq MSHR misses
system.l3cache.ReadSharedReq_mshr_misses::.cpu.data          273                       # number of ReadSharedReq MSHR misses
system.l3cache.ReadSharedReq_mshr_misses::total         1093                       # number of ReadSharedReq MSHR misses
system.l3cache.demand_mshr_misses::.cpu.inst          820                       # number of demand (read+write) MSHR misses
system.l3cache.demand_mshr_misses::.cpu.data         1672                       # number of demand (read+write) MSHR misses
system.l3cache.demand_mshr_misses::total         2492                       # number of demand (read+write) MSHR misses
system.l3cache.overall_mshr_misses::.cpu.inst          820                       # number of overall MSHR misses
system.l3cache.overall_mshr_misses::.cpu.data         1672                       # number of overall MSHR misses
system.l3cache.overall_mshr_misses::total         2492                       # number of overall MSHR misses
system.l3cache.ReadExReq_mshr_miss_latency::.cpu.data    136237500                       # number of ReadExReq MSHR miss cycles
system.l3cache.ReadExReq_mshr_miss_latency::total    136237500                       # number of ReadExReq MSHR miss cycles
system.l3cache.ReadSharedReq_mshr_miss_latency::.cpu.inst     71414000                       # number of ReadSharedReq MSHR miss cycles
system.l3cache.ReadSharedReq_mshr_miss_latency::.cpu.data     23459000                       # number of ReadSharedReq MSHR miss cycles
system.l3cache.ReadSharedReq_mshr_miss_latency::total     94873000                       # number of ReadSharedReq MSHR miss cycles
system.l3cache.demand_mshr_miss_latency::.cpu.inst     71414000                       # number of demand (read+write) MSHR miss cycles
system.l3cache.demand_mshr_miss_latency::.cpu.data    159696500                       # number of demand (read+write) MSHR miss cycles
system.l3cache.demand_mshr_miss_latency::total    231110500                       # number of demand (read+write) MSHR miss cycles
system.l3cache.overall_mshr_miss_latency::.cpu.inst     71414000                       # number of overall MSHR miss cycles
system.l3cache.overall_mshr_miss_latency::.cpu.data    159696500                       # number of overall MSHR miss cycles
system.l3cache.overall_mshr_miss_latency::total    231110500                       # number of overall MSHR miss cycles
system.l3cache.ReadExReq_mshr_miss_rate::.cpu.data            1                       # mshr miss rate for ReadExReq accesses
system.l3cache.ReadExReq_mshr_miss_rate::total            1                       # mshr miss rate for ReadExReq accesses
system.l3cache.ReadSharedReq_mshr_miss_rate::.cpu.inst            1                       # mshr miss rate for ReadSharedReq accesses
system.l3cache.ReadSharedReq_mshr_miss_rate::.cpu.data            1                       # mshr miss rate for ReadSharedReq accesses
system.l3cache.ReadSharedReq_mshr_miss_rate::total            1                       # mshr miss rate for ReadSharedReq accesses
system.l3cache.demand_mshr_miss_rate::.cpu.inst            1                       # mshr miss rate for demand accesses
system.l3cache.demand_mshr_miss_rate::.cpu.data            1                       # mshr miss rate for demand accesses
system.l3cache.demand_mshr_miss_rate::total            1                       # mshr miss rate for demand accesses
system.l3cache.overall_mshr_miss_rate::.cpu.inst            1                       # mshr miss rate for overall accesses
system.l3cache.overall_mshr_miss_rate::.cpu.data            1                       # mshr miss rate for overall accesses
system.l3cache.overall_mshr_miss_rate::total            1                       # mshr miss rate for overall accesses
system.l3cache.ReadExReq_avg_mshr_miss_latency::.cpu.data 97382.058613                       # average ReadExReq mshr miss latency
system.l3cache.ReadExReq_avg_mshr_miss_latency::total 97382.058613                       # average ReadExReq mshr miss latency
system.l3cache.ReadSharedReq_avg_mshr_miss_latency::.cpu.inst 87090.243902                       # average ReadSharedReq mshr miss latency
system.l3cache.ReadSharedReq_avg_mshr_miss_latency::.cpu.data 85930.402930                       # average ReadSharedReq mshr miss latency
system.l3cache.ReadSharedReq_avg_mshr_miss_latency::total 86800.548948                       # average ReadSharedReq mshr miss latency
system.l3cache.demand_avg_mshr_miss_latency::.cpu.inst 87090.243902                       # average overall mshr miss latency
system.l3cache.demand_avg_mshr_miss_latency::.cpu.data 95512.260766                       # average overall mshr miss latency
system.l3cache.demand_avg_mshr_miss_latency::total 92740.971108                       # average overall mshr miss latency
system.l3cache.overall_avg_mshr_miss_latency::.cpu.inst 87090.243902                       # average overall mshr miss latency
system.l3cache.overall_avg_mshr_miss_latency::.cpu.data 95512.260766                       # average overall mshr miss latency
system.l3cache.overall_avg_mshr_miss_latency::total 92740.971108                       # average overall mshr miss latency
system.l3cache.replacements                         0                       # number of replacements
system.membus.snoop_filter.tot_requests          2492                       # Total number of requests made to the snoop filter.
system.membus.snoop_filter.hit_single_requests            0                       # Number of requests hitting in the snoop filter with a single holder of the requested data.
system.membus.snoop_filter.hit_multi_requests            0                       # Number of requests hitting in the snoop filter with multiple (>1) holders of the requested data.
system.membus.snoop_filter.tot_snoops               0                       # Total number of snoops made to the snoop filter.
system.membus.snoop_filter.hit_single_snoops            0                       # Number of snoops hitting in the snoop filter with a single holder of the requested data.
system.membus.snoop_filter.hit_multi_snoops            0                       # Number of snoops hitting in the snoop filter with multiple (>1) holders of the requested data.
system.membus.pwrStateResidencyTicks::UNDEFINED  13619304500                       # Cumulative time (in ticks) in various power states
system.membus.trans_dist::ReadResp               1093                       # Transaction distribution
system.membus.trans_dist::ReadExReq              1399                       # Transaction distribution
system.membus.trans_dist::ReadExResp             1399                       # Transaction distribution
system.membus.trans_dist::ReadSharedReq          1093                       # Transaction distribution
system.membus.pkt_count_system.l3cache.mem_side::system.mem_ctrl.port         4984                       # Packet count per connected master and slave (bytes)
system.membus.pkt_count_system.l3cache.mem_side::total         4984                       # Packet count per connected master and slave (bytes)
system.membus.pkt_count::total                   4984                       # Packet count per connected master and slave (bytes)
system.membus.pkt_size_system.l3cache.mem_side::system.mem_ctrl.port       159488                       # Cumulative packet size per connected master and slave (bytes)
system.membus.pkt_size_system.l3cache.mem_side::total       159488                       # Cumulative packet size per connected master and slave (bytes)
system.membus.pkt_size::total                  159488                       # Cumulative packet size per connected master and slave (bytes)
system.membus.snoops                                0                       # Total snoops (count)
system.membus.snoopTraffic                          0                       # Total snoop traffic (bytes)
system.membus.snoop_fanout::samples              2492                       # Request fanout histogram
system.membus.snoop_fanout::mean                    0                       # Request fanout histogram
system.membus.snoop_fanout::stdev                   0                       # Request fanout histogram
system.membus.snoop_fanout::underflows              0      0.00%      0.00% # Request fanout histogram
system.membus.snoop_fanout::0                    2492    100.00%    100.00% # Request fanout histogram
system.membus.snoop_fanout::1                       0      0.00%    100.00% # Request fanout histogram
system.membus.snoop_fanout::overflows               0      0.00%    100.00% # Request fanout histogram
system.membus.snoop_fanout::min_value               0                       # Request fanout histogram
system.membus.snoop_fanout::max_value               0                       # Request fanout histogram
system.membus.snoop_fanout::total                2492                       # Request fanout histogram
system.membus.reqLayer0.occupancy             1246000                       # Layer occupancy (ticks)
system.membus.reqLayer0.utilization               0.0                       # Layer utilization (%)
system.membus.respLayer0.occupancy            6653500                       # Layer occupancy (ticks)
system.membus.respLayer0.utilization              0.0                       # Layer utilization (%)

---------- End Simulation Statistics   ----------