
---------- Begin Simulation Statistics ----------
sim_seconds                                  0.000252                       # Number of seconds simulated
sim_ticks                                   251575500                       # Number of ticks simulated
final_tick                                  251575500                       # Number of ticks from beginning of simulation (restored from checkpoints and never reset)
sim_freq                                 1000000000000                       # Frequency of simulated ticks
host_inst_rate                                 195770                       # Simulator instruction rate (inst/s)
host_op_rate                                   348089                       # Simulator op (including micro ops) rate (op/s)
host_tick_rate                              164818113                       # Simulator tick rate (ticks/s)
host_mem_usage                                 659348                       # Number of bytes of host memory used
host_seconds                                     1.53                       # Real time elapsed on the host
sim_insts                                      298818                       # Number of instructions simulated
sim_ops                                        531316                       # Number of ops (including micro ops) simulated
system.clk_domain.voltage_domain.voltage            1                       # Voltage in Volts
system.clk_domain.clock                           500                       # Clock period in ticks
system.mem_ctrl.pwrStateResidencyTicks::UNDEFINED    251575500                       # Cumulative time (in ticks) in various power states
system.mem_ctrl.bytes_read::.cpu.inst           48832                       # Number of bytes read from this memory
system.mem_ctrl.bytes_read::.cpu.data           20480                       # Number of bytes read from this memory
system.mem_ctrl.bytes_read::total               69312                       # Number of bytes read from this memory
system.mem_ctrl.bytes_inst_read::.cpu.inst        48832                       # Number of instructions bytes read from this memory
system.mem_ctrl.bytes_inst_read::total          48832                       # Number of instructions bytes read from this memory
system.mem_ctrl.num_reads::.cpu.inst              763                       # Number of read requests responded to by this memory
system.mem_ctrl.num_reads::.cpu.data              320                       # Number of read requests responded to by this memory
system.mem_ctrl.num_reads::total                 1083                       # Number of read requests responded to by this memory
system.mem_ctrl.bw_read::.cpu.inst          194104752                       # Total read bandwidth from this memory (bytes/s)
system.mem_ctrl.bw_read::.cpu.data           81406973                       # Total read bandwidth from this memory (bytes/s)
system.mem_ctrl.bw_read::total              275511725                       # Total read bandwidth from this memory (bytes/s)
system.mem_ctrl.bw_inst_read::.cpu.inst     194104752                       # Instruction read bandwidth from this memory (bytes/s)
system.mem_ctrl.bw_inst_read::total         194104752                       # Instruction read bandwidth from this memory (bytes/s)
system.mem_ctrl.bw_total::.cpu.inst         194104752                       # Total bandwidth to/from this memory (bytes/s)
system.mem_ctrl.bw_total::.cpu.data          81406973                       # Total bandwidth to/from this memory (bytes/s)
system.mem_ctrl.bw_total::total             275511725                       # Total bandwidth to/from this memory (bytes/s)
system.mem_ctrl.avgPriority_.cpu.inst::samples       763.00                       # Average QoS priority value for accepted requests
system.mem_ctrl.avgPriority_.cpu.data::samples       320.00                       # Average QoS priority value for accepted requests
system.mem_ctrl.priorityMinLatency       0.000000018750                       # per QoS priority minimum request to response latency (s)
system.mem_ctrl.priorityMaxLatency       0.000001099750                       # per QoS priority maximum request to response latency (s)
system.mem_ctrl.numReadWriteTurnArounds             0                       # Number of turnarounds from READ to WRITE
system.mem_ctrl.numWriteReadTurnArounds             0                       # Number of turnarounds from WRITE to READ
system.mem_ctrl.numStayReadState                 2183                       # Number of times bus staying in READ state
system.mem_ctrl.numStayWriteState                   0                       # Number of times bus staying in WRITE state
system.mem_ctrl.readReqs                         1083                       # Number of read requests accepted
system.mem_ctrl.writeReqs                           0                       # Number of write requests accepted
system.mem_ctrl.readBursts                       1083                       # Number of DRAM read bursts, including those serviced by the write queue
system.mem_ctrl.writeBursts                         0                       # Number of DRAM write bursts, including those merged in the write queue
system.mem_ctrl.bytesReadDRAM                   69312                       # Total number of bytes read from DRAM
system.mem_ctrl.bytesReadWrQ                        0                       # Total number of bytes read from write queue
system.mem_ctrl.bytesWritten                        0                       # Total number of bytes written to DRAM
system.mem_ctrl.bytesReadSys                    69312                       # Total read bytes from the system interface side
system.mem_ctrl.bytesWrittenSys                     0                       # Total written bytes from the system interface side
system.mem_ctrl.servicedByWrQ                       0                       # Number of DRAM read bursts serviced by the write queue
system.mem_ctrl.mergedWrBursts                      0                       # Number of DRAM write bursts merged with an existing one
system.mem_ctrl.neitherReadNorWriteReqs             0                       # Number of requests that are neither read nor write
system.mem_ctrl.perBankRdBursts::0                150                       # Per bank write bursts
system.mem_ctrl.perBankRdBursts::1                 24                       # Per bank write bursts
system.mem_ctrl.perBankRdBursts::2                 41                       # Per bank write bursts
system.mem_ctrl.perBankRdBursts::3                 15                       # Per bank write bursts
system.mem_ctrl.perBankRdBursts::4                 30                       # Per bank write bursts
system.mem_ctrl.perBankRdBursts::5                 12                       # Per bank write bursts
system.mem_ctrl.perBankRdBursts::6                 72                       # Per bank write bursts
system.mem_ctrl.perBankRdBursts::7                 95                       # Per bank write bursts
system.mem_ctrl.perBankRdBursts::8                 27                       # Per bank write bursts
system.mem_ctrl.perBankRdBursts::9                 51                       # Per bank write bursts
system.mem_ctrl.perBankRdBursts::10               133                       # Per bank write bursts
system.mem_ctrl.perBankRdBursts::11               102                       # Per bank write bursts
system.mem_ctrl.perBankRdBursts::12                56                       # Per bank write bursts
system.mem_ctrl.perBankRdBursts::13                72                       # Per bank write bursts
system.mem_ctrl.perBankRdBursts::14               115                       # Per bank write bursts
system.mem_ctrl.perBankRdBursts::15                88                       # Per bank write bursts
system.mem_ctrl.perBankWrBursts::0                  0                       # Per bank write bursts
system.mem_ctrl.perBankWrBursts::1                  0                       # Per bank write bursts
system.mem_ctrl.perBankWrBursts::2                  0                       # Per bank write bursts
system.mem_ctrl.perBankWrBursts::3                  0                       # Per bank write bursts
system.mem_ctrl.perBankWrBursts::4                  0                       # Per bank write bursts
system.mem_ctrl.perBankWrBursts::5                  0                       # Per bank write bursts
system.mem_ctrl.perBankWrBursts::6                  0                       # Per bank write bursts
system.mem_ctrl.perBankWrBursts::7                  0                       # Per bank write bursts
system.mem_ctrl.perBankWrBursts::8                  0                       # Per bank write bursts
system.mem_ctrl.perBankWrBursts::9                  0                       # Per bank write bursts
system.mem_ctrl.perBankWrBursts::10                 0                       # Per bank write bursts
system.mem_ctrl.perBankWrBursts::11                 0                       # Per bank write bursts
system.mem_ctrl.perBankWrBursts::12                 0                       # Per bank write bursts
system.mem_ctrl.perBankWrBursts::13                 0                       # Per bank write bursts
system.mem_ctrl.perBankWrBursts::14                 0                       # Per bank write bursts
system.mem_ctrl.perBankWrBursts::15                 0                       # Per bank write bursts
system.mem_ctrl.numRdRetry                          0                       # Number of times read queue was full causing retry
system.mem_ctrl.numWrRetry                          0                       # Number of times write queue was full causing retry
system.mem_ctrl.totGap                      251484000                       # Total gap between requests
system.mem_ctrl.readPktSize::0                      0                       # Read request sizes (log2)
system.mem_ctrl.readPktSize::1                      0                       # Read request sizes (log2)
system.mem_ctrl.readPktSize::2                      0                       # Read request sizes (log2)
system.mem_ctrl.readPktSize::3                      0                       # Read request sizes (log2)
system.mem_ctrl.readPktSize::4                      0                       # Read request sizes (log2)
system.mem_ctrl.readPktSize::5                      0                       # Read request sizes (log2)
system.mem_ctrl.readPktSize::6                   1083                       # Read request sizes (log2)
system.mem_ctrl.writePktSize::0                     0                       # Write request sizes (log2)
system.mem_ctrl.writePktSize::1                     0                       # Write request sizes (log2)
system.mem_ctrl.writePktSize::2                     0                       # Write request sizes (log2)
system.mem_ctrl.writePktSize::3                     0                       # Write request sizes (log2)
system.mem_ctrl.writePktSize::4                     0                       # Write request sizes (log2)
system.mem_ctrl.writePktSize::5                     0                       # Write request sizes (log2)
system.mem_ctrl.writePktSize::6                     0                       # Write request sizes (log2)
system.mem_ctrl.rdQLenPdf::0                      731                       # What read queue length does an incoming req see
system.mem_ctrl.rdQLenPdf::1                      279                       # What read queue length does an incoming req see
system.mem_ctrl.rdQLenPdf::2                       56                       # What read queue length does an incoming req see
system.mem_ctrl.rdQLenPdf::3                       14                       # What read queue length does an incoming req see
system.mem_ctrl.rdQLenPdf::4                        3                       # What read queue length does an incoming req see
system.mem_ctrl.rdQLenPdf::5                        0                       # What read queue length does an incoming req see
system.mem_ctrl.rdQLenPdf::6                        0                       # What read queue length does an incoming req see
system.mem_ctrl.rdQLenPdf::7                        0                       # What read queue length does an incoming req see
system.mem_ctrl.rdQLenPdf::8                        0                       # What read queue length does an incoming req see
system.mem_ctrl.rdQLenPdf::9                        0                       # What read queue length does an incoming req see
system.mem_ctrl.rdQLenPdf::10                       0                       # What read queue length does an incoming req see
system.mem_ctrl.rdQLenPdf::11                       0                       # What read queue length does an incoming req see
system.mem_ctrl.rdQLenPdf::12                       0                       # What read queue length does an incoming req see
system.mem_ctrl.rdQLenPdf::13                       0                       # What read queue length does an incoming req see
system.mem_ctrl.rdQLenPdf::14                       0                       # What read queue length does an incoming req see
system.mem_ctrl.rdQLenPdf::15                       0                       # What read queue length does an incoming req see
system.mem_ctrl.rdQLenPdf::16                       0                       # What read queue length does an incoming req see
system.mem_ctrl.rdQLenPdf::17                       0                       # What read queue length does an incoming req see
system.mem_ctrl.rdQLenPdf::18                       0                       # What read queue length does an incoming req see
system.mem_ctrl.rdQLenPdf::19                       0                       # What read queue length does an incoming req see
system.mem_ctrl.rdQLenPdf::20                       0                       # What read queue length does an incoming req see
system.mem_ctrl.rdQLenPdf::21                       0                       # What read queue length does an incoming req see
system.mem_ctrl.rdQLenPdf::22                       0                       # What read queue length does an incoming req see
system.mem_ctrl.rdQLenPdf::23                       0                       # What read queue length does an incoming req see
system.mem_ctrl.rdQLenPdf::24                       0                       # What read queue length does an incoming req see
system.mem_ctrl.rdQLenPdf::25                       0                       # What read queue length does an incoming req see
system.mem_ctrl.rdQLenPdf::26                       0                       # What read queue length does an incoming req see
system.mem_ctrl.rdQLenPdf::27                       0                       # What read queue length does an incoming req see
system.mem_ctrl.rdQLenPdf::28                       0                       # What read queue length does an incoming req see
system.mem_ctrl.rdQLenPdf::29                       0                       # What read queue length does an incoming req see
system.mem_ctrl.rdQLenPdf::30                       0                       # What read queue length does an incoming req see
system.mem_ctrl.rdQLenPdf::31                       0                       # What read queue length does an incoming req see
system.mem_ctrl.wrQLenPdf::0                        0                       # What write queue length does an incoming req see
system.mem_ctrl.wrQLenPdf::1                        0                       # What write queue length does an incoming req see
system.mem_ctrl.wrQLenPdf::2                        0                       # What write queue length does an incoming req see
system.mem_ctrl.wrQLenPdf::3                        0                       # What write queue length does an incoming req see
system.mem_ctrl.wrQLenPdf::4                        0                       # What write queue length does an incoming req see
system.mem_ctrl.wrQLenPdf::5                        0                       # What write queue length does an incoming req see
system.mem_ctrl.wrQLenPdf::6                        0                       # What write queue length does an incoming req see
system.mem_ctrl.wrQLenPdf::7                        0                       # What write queue length does an incoming req see
system.mem_ctrl.wrQLenPdf::8                        0                       # What write queue length does an incoming req see
system.mem_ctrl.wrQLenPdf::9                        0                       # What write queue length does an incoming req see
system.mem_ctrl.wrQLenPdf::10                       0                       # What write queue length does an incoming req see
system.mem_ctrl.wrQLenPdf::11                       0                       # What write queue length does an incoming req see
system.mem_ctrl.wrQLenPdf::12                       0                       # What write queue length does an incoming req see
system.mem_ctrl.wrQLenPdf::13                       0                       # What write queue length does an incoming req see
system.mem_ctrl.wrQLenPdf::14                       0                       # What write queue length does an incoming req see
system.mem_ctrl.wrQLenPdf::15                       0                       # What write queue length does an incoming req see
system.mem_ctrl.wrQLenPdf::16                       0                       # What write queue length does an incoming req see
system.mem_ctrl.wrQLenPdf::17                       0                       # What write queue length does an incoming req see
system.mem_ctrl.wrQLenPdf::18                       0                       # What write queue length does an incoming req see
system.mem_ctrl.wrQLenPdf::19                       0                       # What write queue length does an incoming req see
system.mem_ctrl.wrQLenPdf::20                       0                       # What write queue length does an incoming req see
system.mem_ctrl.wrQLenPdf::21                       0                       # What write queue length does an incoming req see
system.mem_ctrl.wrQLenPdf::22                       0                       # What write queue length does an incoming req see
system.mem_ctrl.wrQLenPdf::23                       0                       # What write queue length does an incoming req see
system.mem_ctrl.wrQLenPdf::24                       0                       # What write queue length does an incoming req see
system.mem_ctrl.wrQLenPdf::25                       0                       # What write queue length does an incoming req see
system.mem_ctrl.wrQLenPdf::26                       0                       # What write queue length does an incoming req see
system.mem_ctrl.wrQLenPdf::27                       0                       # What write queue length does an incoming req see
system.mem_ctrl.wrQLenPdf::28                       0                       # What write queue length does an incoming req see
system.mem_ctrl.wrQLenPdf::29                       0                       # What write queue length does an incoming req see
system.mem_ctrl.wrQLenPdf::30                       0                       # What write queue length does an incoming req see
system.mem_ctrl.wrQLenPdf::31                       0                       # What write queue length does an incoming req see
system.mem_ctrl.wrQLenPdf::32                       0                       # What write queue length does an incoming req see
system.mem_ctrl.wrQLenPdf::33                       0                       # What write queue length does an incoming req see
system.mem_ctrl.wrQLenPdf::34                       0                       # What write queue length does an incoming req see
system.mem_ctrl.wrQLenPdf::35                       0                       # What write queue length does an incoming req see
system.mem_ctrl.wrQLenPdf::36                       0                       # What write queue length does an incoming req see
system.mem_ctrl.wrQLenPdf::37                       0                       # What write queue length does an incoming req see
system.mem_ctrl.wrQLenPdf::38                       0                       # What write queue length does an incoming req see
system.mem_ctrl.wrQLenPdf::39                       0                       # What write queue length does an incoming req see
system.mem_ctrl.wrQLenPdf::40                       0                       # What write queue length does an incoming req see
system.mem_ctrl.wrQLenPdf::41                       0                       # What write queue length does an incoming req see
system.mem_ctrl.wrQLenPdf::42                       0                       # What write queue length does an incoming req see
system.mem_ctrl.wrQLenPdf::43                       0                       # What write queue length does an incoming req see
system.mem_ctrl.wrQLenPdf::44                       0                       # What write queue length does an incoming req see
system.mem_ctrl.wrQLenPdf::45                       0                       # What write queue length does an incoming req see
system.mem_ctrl.wrQLenPdf::46                       0                       # What write queue length does an incoming req see
system.mem_ctrl.wrQLenPdf::47                       0                       # What write queue length does an incoming req see
system.mem_ctrl.wrQLenPdf::48                       0                       # What write queue length does an incoming req see
system.mem_ctrl.wrQLenPdf::49                       0                       # What write queue length does an incoming req see
system.mem_ctrl.wrQLenPdf::50                       0                       # What write queue length does an incoming req see
system.mem_ctrl.wrQLenPdf::51                       0                       # What write queue length does an incoming req see
system.mem_ctrl.wrQLenPdf::52                       0                       # What write queue length does an incoming req see
system.mem_ctrl.wrQLenPdf::53                       0                       # What write queue length does an incoming req see
system.mem_ctrl.wrQLenPdf::54                       0                       # What write queue length does an incoming req see
system.mem_ctrl.wrQLenPdf::55                       0                       # What write queue length does an incoming req see
system.mem_ctrl.wrQLenPdf::56                       0                       # What write queue length does an incoming req see
system.mem_ctrl.wrQLenPdf::57                       0                       # What write queue length does an incoming req see
system.mem_ctrl.wrQLenPdf::58                       0                       # What write queue length does an incoming req see
system.mem_ctrl.wrQLenPdf::59                       0                       # What write queue length does an incoming req see
system.mem_ctrl.wrQLenPdf::60                       0                       # What write queue length does an incoming req see
system.mem_ctrl.wrQLenPdf::61                       0                       # What write queue length does an incoming req see
system.mem_ctrl.wrQLenPdf::62                       0                       # What write queue length does an incoming req see
system.mem_ctrl.wrQLenPdf::63                       0                       # What write queue length does an incoming req see
system.mem_ctrl.bytesPerActivate::samples          229                       # Bytes accessed per row activation
system.mem_ctrl.bytesPerActivate::mean     293.729258                       # Bytes accessed per row activation
system.mem_ctrl.bytesPerActivate::gmean    186.756271                       # Bytes accessed per row activation
system.mem_ctrl.bytesPerActivate::stdev    291.546656                       # Bytes accessed per row activation
system.mem_ctrl.bytesPerActivate::0-127            74     32.31%     32.31% # Bytes accessed per row activation
system.mem_ctrl.bytesPerActivate::128-255           60     26.20%     58.52% # Bytes accessed per row activation
system.mem_ctrl.bytesPerActivate::256-383           31     13.54%     72.05% # Bytes accessed per row activation
system.mem_ctrl.bytesPerActivate::384-511           16      6.99%     79.04% # Bytes accessed per row activation
system.mem_ctrl.bytesPerActivate::512-639           14      6.11%     85.15% # Bytes accessed per row activation
system.mem_ctrl.bytesPerActivate::640-767            4      1.75%     86.90% # Bytes accessed per row activation
system.mem_ctrl.bytesPerActivate::768-895           11      4.80%     91.70% # Bytes accessed per row activation
system.mem_ctrl.bytesPerActivate::896-1023            2      0.87%     92.58% # Bytes accessed per row activation
system.mem_ctrl.bytesPerActivate::1024-1151           17      7.42%    100.00% # Bytes accessed per row activation
system.mem_ctrl.bytesPerActivate::total           229                       # Bytes accessed per row activation
system.mem_ctrl.masterReadBytes::.cpu.inst        48832                       # Per-master bytes read from memory
system.mem_ctrl.masterReadBytes::.cpu.data        20480                       # Per-master bytes read from memory
system.mem_ctrl.masterReadRate::.cpu.inst 194104751.853817254305                       # Per-master bytes read from memory rate (Bytes/sec)
system.mem_ctrl.masterReadRate::.cpu.data 81406973.254549831152                       # Per-master bytes read from memory rate (Bytes/sec)
system.mem_ctrl.masterReadAccesses::.cpu.inst          763                       # Per-master read serviced memory accesses
system.mem_ctrl.masterReadAccesses::.cpu.data          320                       # Per-master read serviced memory accesses
system.mem_ctrl.masterReadTotalLat::.cpu.inst     25583750                       # Per-master read total memory access latency
system.mem_ctrl.masterReadTotalLat::.cpu.data     11662250                       # Per-master read total memory access latency
system.mem_ctrl.masterReadAvgLat::.cpu.inst     33530.47                       # Per-master read average memory access latency
system.mem_ctrl.masterReadAvgLat::.cpu.data     36444.53                       # Per-master read average memory access latency
system.mem_ctrl.totQLat                      16939750                       # Total ticks spent queuing
system.mem_ctrl.totMemAccLat                 37246000                       # Total ticks spent from burst creation until serviced by the DRAM
system.mem_ctrl.totBusLat                     5415000                       # Total ticks spent in databus transfers
system.mem_ctrl.avgQLat                      15641.51                       # Average queueing delay per DRAM burst
system.mem_ctrl.avgBusLat                     5000.00                       # Average bus latency per DRAM burst
system.mem_ctrl.avgMemAccLat                 34391.51                       # Average memory access latency per DRAM burst
system.mem_ctrl.avgRdBW                        275.51                       # Average DRAM read bandwidth in MiByte/s
system.mem_ctrl.avgWrBW                          0.00                       # Average achieved write bandwidth in MiByte/s
system.mem_ctrl.avgRdBWSys                     275.51                       # Average system read bandwidth in MiByte/s
system.mem_ctrl.avgWrBWSys                       0.00                       # Average system write bandwidth in MiByte/s
system.mem_ctrl.peakBW                       12800.00                       # Theoretical peak bandwidth in MiByte/s
system.mem_ctrl.busUtil                          2.15                       # Data bus utilization in percentage
system.mem_ctrl.busUtilRead                      2.15                       # Data bus utilization in percentage for reads
system.mem_ctrl.busUtilWrite                     0.00                       # Data bus utilization in percentage for writes
system.mem_ctrl.avgRdQLen                        1.15                       # Average read queue length when enqueuing
system.mem_ctrl.avgWrQLen                        0.00                       # Average write queue length when enqueuing
system.mem_ctrl.readRowHits                       846                       # Number of row buffer hits during reads
system.mem_ctrl.writeRowHits                        0                       # Number of row buffer hits during writes
system.mem_ctrl.readRowHitRate                  78.12                       # Row buffer hit rate for reads
system.mem_ctrl.writeRowHitRate                   nan                       # Row buffer hit rate for writes
system.mem_ctrl.avgGap                      232210.53                       # Average gap between requests
system.mem_ctrl.pageHitRate                     78.12                       # Row buffer hit rate, read and write combined
system.mem_ctrl_0.actEnergy                    614040                       # Energy for activate commands per rank (pJ)
system.mem_ctrl_0.preEnergy                    307395                       # Energy for precharge commands per rank (pJ)
system.mem_ctrl_0.readEnergy                  3134460                       # Energy for read commands per rank (pJ)
system.mem_ctrl_0.writeEnergy                       0                       # Energy for write commands per rank (pJ)
system.mem_ctrl_0.refreshEnergy          12907440.000000                       # Energy for refresh commands per rank (pJ)
system.mem_ctrl_0.actBackEnergy               7604370                       # Energy for active background per rank (pJ)
system.mem_ctrl_0.preBackEnergy                481920                       # Energy for precharge background per rank (pJ)
system.mem_ctrl_0.actPowerDownEnergy         48471090                       # Energy for active power-down per rank (pJ)
system.mem_ctrl_0.prePowerDownEnergy         16872480                       # Energy for precharge power-down per rank (pJ)
system.mem_ctrl_0.selfRefreshEnergy          21122880                       # Energy for self refresh per rank (pJ)
system.mem_ctrl_0.totalEnergy               111516075                       # Total energy per rank (pJ)
system.mem_ctrl_0.averagePower             443.270807                       # Core power per rank (mW)
system.mem_ctrl_0.totalIdleTime             233610750                       # Total Idle time Per DRAM Rank
system.mem_ctrl_0.memoryStateTime::IDLE        672500                       # Time in different power states
system.mem_ctrl_0.memoryStateTime::REF        5460000                       # Time in different power states
system.mem_ctrl_0.memoryStateTime::SREF      83410250                       # Time in different power states
system.mem_ctrl_0.memoryStateTime::PRE_PDN     43935750                       # Time in different power states
system.mem_ctrl_0.memoryStateTime::ACT       11784000                       # Time in different power states
system.mem_ctrl_0.memoryStateTime::ACT_PDN    106313000                       # Time in different power states
system.mem_ctrl_1.actEnergy                   1078140                       # Energy for activate commands per rank (pJ)
system.mem_ctrl_1.preEnergy                    561660                       # Energy for precharge commands per rank (pJ)
system.mem_ctrl_1.readEnergy                  4598160                       # Energy for read commands per rank (pJ)
system.mem_ctrl_1.writeEnergy                       0                       # Energy for write commands per rank (pJ)
system.mem_ctrl_1.refreshEnergy          14136720.000000                       # Energy for refresh commands per rank (pJ)
system.mem_ctrl_1.actBackEnergy               9962460                       # Energy for active background per rank (pJ)
system.mem_ctrl_1.preBackEnergy                581760                       # Energy for precharge background per rank (pJ)
system.mem_ctrl_1.actPowerDownEnergy         52669140                       # Energy for active power-down per rank (pJ)
system.mem_ctrl_1.prePowerDownEnergy         17477760                       # Energy for precharge power-down per rank (pJ)
system.mem_ctrl_1.selfRefreshEnergy          17231580                       # Energy for self refresh per rank (pJ)
system.mem_ctrl_1.totalEnergy               118297380                       # Total energy per rank (pJ)
system.mem_ctrl_1.averagePower             470.226155                       # Core power per rank (mW)
system.mem_ctrl_1.totalIdleTime             227993000                       # Total Idle time Per DRAM Rank
system.mem_ctrl_1.memoryStateTime::IDLE        784500                       # Time in different power states
system.mem_ctrl_1.memoryStateTime::REF        5980000                       # Time in different power states
system.mem_ctrl_1.memoryStateTime::SREF      67196500                       # Time in different power states
system.mem_ctrl_1.memoryStateTime::PRE_PDN     45513500                       # Time in different power states
system.mem_ctrl_1.memoryStateTime::ACT       16582250                       # Time in different power states
system.mem_ctrl_1.memoryStateTime::ACT_PDN    115518750                       # Time in different power states
system.pwrStateResidencyTicks::UNDEFINED    251575500                       # Cumulative time (in ticks) in various power states
system.cpu.branchPred.lookups                   73723                       # Number of BP lookups
system.cpu.branchPred.condPredicted             73723                       # Number of conditional branches predicted
system.cpu.branchPred.condIncorrect              5181                       # Number of conditional branches incorrect
system.cpu.branchPred.BTBLookups                62447                       # Number of BTB lookups
system.cpu.branchPred.BTBHits                       0                       # Number of BTB hits
system.cpu.branchPred.BTBCorrect                    0                       # Number of correct BTB predictions (this stat may not work properly.
system.cpu.branchPred.BTBHitPct              0.000000                       # BTB Hit Percentage
system.cpu.branchPred.usedRAS                    4069                       # Number of times the RAS was used to get a target.
system.cpu.branchPred.RASInCorrect                676                       # Number of incorrect RAS predictions.
system.cpu.branchPred.indirectLookups           62447                       # Number of indirect predictor lookups.
system.cpu.branchPred.indirectHits              26383                       # Number of indirect target hits.
system.cpu.branchPred.indirectMisses            36064                       # Number of indirect misses.
system.cpu.branchPredindirectMispredicted         2998                       # Number of mispredicted indirect branches.
system.cpu.dtb.walker.pwrStateResidencyTicks::UNDEFINED    251575500                       # Cumulative time (in ticks) in various power states
system.cpu.dtb.rdAccesses                      109160                       # TLB accesses on read requests
system.cpu.dtb.wrAccesses                       47447                       # TLB accesses on write requests
system.cpu.dtb.rdMisses                           145                       # TLB misses on read requests
system.cpu.dtb.wrMisses                            36                       # TLB misses on write requests
system.cpu.apic_clk_domain.clock                 8000                       # Clock period in ticks
system.cpu.interrupts.pwrStateResidencyTicks::UNDEFINED    251575500                       # Cumulative time (in ticks) in various power states
system.cpu.itb.walker.pwrStateResidencyTicks::UNDEFINED    251575500                       # Cumulative time (in ticks) in various power states
system.cpu.itb.rdAccesses                           0                       # TLB accesses on read requests
system.cpu.itb.wrAccesses                       56474                       # TLB accesses on write requests
system.cpu.itb.rdMisses                             0                       # TLB misses on read requests
system.cpu.itb.wrMisses                           150                       # TLB misses on write requests
system.cpu.workload.numSyscalls                    15                       # Number of system calls
system.cpu.pwrStateResidencyTicks::ON       251575500                       # Cumulative time (in ticks) in various power states
system.cpu.numCycles                           503152                       # number of cpu cycles simulated
system.cpu.numWorkItemsStarted                      0                       # number of work items this cpu started
system.cpu.numWorkItemsCompleted                    0                       # number of work items this cpu completed
system.cpu.fetch.icacheStallCycles              50130                       # Number of cycles fetch is stalled on an Icache miss
system.cpu.fetch.Insts                         412524                       # Number of instructions fetch has processed
system.cpu.fetch.Branches                       73723                       # Number of branches that fetch encountered
system.cpu.fetch.predictedBranches              30452                       # Number of branches that fetch has predicted taken
system.cpu.fetch.Cycles                        406912                       # Number of cycles fetch has run and was not squashing or blocked
system.cpu.fetch.SquashCycles                   10630                       # Number of cycles fetch has spent squashing
system.cpu.fetch.MiscStallCycles                   65                       # Number of cycles fetch has spent waiting on interrupts, or bad addresses, or out of MSHRs
system.cpu.fetch.PendingTrapStallCycles           889                       # Number of stall cycles due to pending traps
system.cpu.fetch.PendingQuiesceStallCycles           19                       # Number of stall cycles due to pending quiesce instructions
system.cpu.fetch.CacheLines                     56382                       # Number of cache lines fetched
system.cpu.fetch.IcacheSquashes                   450                       # Number of outstanding Icache misses that were squashed
system.cpu.fetch.rateDist::samples             463330                       # Number of instructions fetched each cycle (Total)
system.cpu.fetch.rateDist::mean              1.551052                       # Number of instructions fetched each cycle (Total)
system.cpu.fetch.rateDist::stdev             0.802296                       # Number of instructions fetched each cycle (Total)
system.cpu.fetch.rateDist::underflows               0      0.00%      0.00% # Number of instructions fetched each cycle (Total)
system.cpu.fetch.rateDist::0                    91805     19.81%     19.81% # Number of instructions fetched each cycle (Total)
system.cpu.fetch.rateDist::1                    24401      5.27%     25.08% # Number of instructions fetched each cycle (Total)
system.cpu.fetch.rateDist::2                   347124     74.92%    100.00% # Number of instructions fetched each cycle (Total)
system.cpu.fetch.rateDist::overflows                0      0.00%    100.00% # Number of instructions fetched each cycle (Total)
system.cpu.fetch.rateDist::min_value                0                       # Number of instructions fetched each cycle (Total)
system.cpu.fetch.rateDist::max_value                2                       # Number of instructions fetched each cycle (Total)
system.cpu.fetch.rateDist::total               463330                       # Number of instructions fetched each cycle (Total)
system.cpu.fetch.branchRate                  0.146522                       # Number of branch fetches per cycle
system.cpu.fetch.rate                        0.819879                       # Number of inst fetches per cycle
system.cpu.decode.IdleCycles                    65458                       # Number of cycles decode is idle
system.cpu.decode.BlockedCycles                 40295                       # Number of cycles decode is blocked
system.cpu.decode.RunCycles                    342469                       # Number of cycles decode is running
system.cpu.decode.UnblockCycles                  9793                       # Number of cycles decode is unblocking
system.cpu.decode.SquashCycles                   5315                       # Number of cycles decode is squashing
system.cpu.decode.DecodedInsts                 674386                       # Number of instructions handled by decode
system.cpu.decode.SquashedInsts                 16200                       # Number of squashed instructions handled by decode
system.cpu.rename.SquashCycles                   5315                       # Number of cycles rename is squashing
system.cpu.rename.IdleCycles                    83466                       # Number of cycles rename is idle
system.cpu.rename.BlockCycles                   13421                       # Number of cycles rename is blocking
system.cpu.rename.serializeStallCycles           1555                       # count of cycles rename stalled for serializing inst
system.cpu.rename.RunCycles                    333912                       # Number of cycles rename is running
system.cpu.rename.UnblockCycles                 25661                       # Number of cycles rename is unblocking
system.cpu.rename.RenamedInsts                 657693                       # Number of instructions processed by rename
system.cpu.rename.SquashedInsts                  7846                       # Number of squashed instructions processed by rename
system.cpu.rename.ROBFullEvents                    31                       # Number of times rename has blocked due to ROB full
system.cpu.rename.IQFullEvents                   2798                       # Number of times rename has blocked due to IQ full
system.cpu.rename.LQFullEvents                   1370                       # Number of times rename has blocked due to LQ full
system.cpu.rename.SQFullEvents                  16813                       # Number of times rename has blocked due to SQ full
system.cpu.rename.FullRegisterEvents               13                       # Number of times there has been no free registers
system.cpu.rename.RenamedOperands              737173                       # Number of destination operands rename has renamed
system.cpu.rename.RenameLookups               1652592                       # Number of register rename lookups that rename has made
system.cpu.rename.int_rename_lookups          1020643                       # Number of integer rename lookups
system.cpu.rename.fp_rename_lookups              4963                       # Number of floating rename lookups
system.cpu.rename.CommittedMaps                598569                       # Number of HB maps that are committed
system.cpu.rename.UndoneMaps                   138604                       # Number of HB maps that are undone due to squashing
system.cpu.rename.serializingInsts                 34                       # count of serializing insts renamed
system.cpu.rename.tempSerializingInsts             31                       # count of temporary serializing insts renamed
system.cpu.rename.skidInsts                     14920                       # count of insts added to the skid buffer
system.cpu.memDep0.insertedLoads               122191                       # Number of loads inserted to the mem dependence unit.
system.cpu.memDep0.insertedStores               53616                       # Number of stores inserted to the mem dependence unit.
system.cpu.memDep0.conflictingLoads             23897                       # Number of conflicting loads.
system.cpu.memDep0.conflictingStores             5910                       # Number of conflicting stores.
system.cpu.iq.iqInstsAdded                     641173                       # Number of instructions added to the IQ (excludes non-spec)
system.cpu.iq.iqNonSpecInstsAdded                 127                       # Number of non-speculative instructions added to the IQ
system.cpu.iq.iqInstsIssued                    598182                       # Number of instructions issued
system.cpu.iq.iqSquashedInstsIssued              4411                       # Number of squashed instructions issued
system.cpu.iq.iqSquashedInstsExamined          109983                       # Number of squashed instructions iterated over during squash; mainly for profiling
system.cpu.iq.iqSquashedOperandsExamined       153606                       # Number of squashed operands that are examined and possibly removed from graph
system.cpu.iq.iqSquashedNonSpecRemoved            112                       # Number of squashed non-spec instructions that were removed
system.cpu.iq.issued_per_cycle::samples        463330                       # Number of insts issued each cycle
system.cpu.iq.issued_per_cycle::mean         1.291050                       # Number of insts issued each cycle
system.cpu.iq.issued_per_cycle::stdev        0.860270                       # Number of insts issued each cycle
system.cpu.iq.issued_per_cycle::underflows            0      0.00%      0.00% # Number of insts issued each cycle
system.cpu.iq.issued_per_cycle::0              123645     26.69%     26.69% # Number of insts issued each cycle
system.cpu.iq.issued_per_cycle::1               81188     17.52%     44.21% # Number of insts issued each cycle
system.cpu.iq.issued_per_cycle::2              258497     55.79%    100.00% # Number of insts issued each cycle
system.cpu.iq.issued_per_cycle::overflows            0      0.00%    100.00% # Number of insts issued each cycle
system.cpu.iq.issued_per_cycle::min_value            0                       # Number of insts issued each cycle
system.cpu.iq.issued_per_cycle::max_value            2                       # Number of insts issued each cycle
system.cpu.iq.issued_per_cycle::total          463330                       # Number of insts issued each cycle
system.cpu.iq.fu_full::No_OpClass                   0      0.00%      0.00% # attempts to use FU when none available
system.cpu.iq.fu_full::IntAlu                       0      0.00%      0.00% # attempts to use FU when none available
system.cpu.iq.fu_full::IntMult                      0      0.00%      0.00% # attempts to use FU when none available
system.cpu.iq.fu_full::IntDiv                       0      0.00%      0.00% # attempts to use FU when none available
system.cpu.iq.fu_full::FloatAdd                     0      0.00%      0.00% # attempts to use FU when none available
system.cpu.iq.fu_full::FloatCmp                     0      0.00%      0.00% # attempts to use FU when none available
system.cpu.iq.fu_full::FloatCvt                     0      0.00%      0.00% # attempts to use FU when none available
system.cpu.iq.fu_full::FloatMult                    0      0.00%      0.00% # attempts to use FU when none available
system.cpu.iq.fu_full::FloatMultAcc                 0      0.00%      0.00% # attempts to use FU when none available
system.cpu.iq.fu_full::FloatDiv                     0      0.00%      0.00% # attempts to use FU when none available
system.cpu.iq.fu_full::FloatMisc                    0      0.00%      0.00% # attempts to use FU when none available
system.cpu.iq.fu_full::FloatSqrt                    0      0.00%      0.00% # attempts to use FU when none available
system.cpu.iq.fu_full::SimdAdd                    247      0.64%      0.64% # attempts to use FU when none available
system.cpu.iq.fu_full::SimdAddAcc                   0      0.00%      0.64% # attempts to use FU when none available
system.cpu.iq.fu_full::SimdAlu                     63      0.16%      0.80% # attempts to use FU when none available
system.cpu.iq.fu_full::SimdCmp                      0      0.00%      0.80% # attempts to use FU when none available
system.cpu.iq.fu_full::SimdCvt                     46      0.12%      0.92% # attempts to use FU when none available
system.cpu.iq.fu_full::SimdMisc                   138      0.36%      1.27% # attempts to use FU when none available
system.cpu.iq.fu_full::SimdMult                     0      0.00%      1.27% # attempts to use FU when none available
system.cpu.iq.fu_full::SimdMultAcc                  0      0.00%      1.27% # attempts to use FU when none available
system.cpu.iq.fu_full::SimdShift                  124      0.32%      1.59% # attempts to use FU when none available
system.cpu.iq.fu_full::SimdShiftAcc                 0      0.00%      1.59% # attempts to use FU when none available
system.cpu.iq.fu_full::SimdSqrt                     0      0.00%      1.59% # attempts to use FU when none available
system.cpu.iq.fu_full::SimdFloatAdd                 0      0.00%      1.59% # attempts to use FU when none available
system.cpu.iq.fu_full::SimdFloatAlu                 0      0.00%      1.59% # attempts to use FU when none available
system.cpu.iq.fu_full::SimdFloatCmp                 0      0.00%      1.59% # attempts to use FU when none available
system.cpu.iq.fu_full::SimdFloatCvt                 0      0.00%      1.59% # attempts to use FU when none available
system.cpu.iq.fu_full::SimdFloatDiv                 0      0.00%      1.59% # attempts to use FU when none available
system.cpu.iq.fu_full::SimdFloatMisc                0      0.00%      1.59% # attempts to use FU when none available
system.cpu.iq.fu_full::SimdFloatMult                0      0.00%      1.59% # attempts to use FU when none available
system.cpu.iq.fu_full::SimdFloatMultAcc             0      0.00%      1.59% # attempts to use FU when none available
system.cpu.iq.fu_full::SimdFloatSqrt                0      0.00%      1.59% # attempts to use FU when none available
system.cpu.iq.fu_full::SimdAes                      0      0.00%      1.59% # attempts to use FU when none available
system.cpu.iq.fu_full::SimdAesMix                   0      0.00%      1.59% # attempts to use FU when none available
system.cpu.iq.fu_full::SimdSha1Hash                 0      0.00%      1.59% # attempts to use FU when none available
system.cpu.iq.fu_full::SimdSha1Hash2                0      0.00%      1.59% # attempts to use FU when none available
system.cpu.iq.fu_full::SimdSha256Hash               0      0.00%      1.59% # attempts to use FU when none available
system.cpu.iq.fu_full::SimdSha256Hash2              0      0.00%      1.59% # attempts to use FU when none available
system.cpu.iq.fu_full::SimdShaSigma2                0      0.00%      1.59% # attempts to use FU when none available
system.cpu.iq.fu_full::SimdShaSigma3                0      0.00%      1.59% # attempts to use FU when none available
system.cpu.iq.fu_full::MemRead                  31038     80.03%     81.62% # attempts to use FU when none available
system.cpu.iq.fu_full::MemWrite                  7127     18.38%    100.00% # attempts to use FU when none available
system.cpu.iq.fu_full::FloatMemRead                 0      0.00%    100.00% # attempts to use FU when none available
system.cpu.iq.fu_full::FloatMemWrite                0      0.00%    100.00% # attempts to use FU when none available
system.cpu.iq.fu_full::IprAccess                    0      0.00%    100.00% # attempts to use FU when none available
system.cpu.iq.fu_full::InstPrefetch                 0      0.00%    100.00% # attempts to use FU when none available
system.cpu.iq.FU_type_0::No_OpClass               653      0.11%      0.11% # Type of FU issued
system.cpu.iq.FU_type_0::IntAlu                435250     72.76%     72.87% # Type of FU issued
system.cpu.iq.FU_type_0::IntMult                  608      0.10%     72.97% # Type of FU issued
system.cpu.iq.FU_type_0::IntDiv                    31      0.01%     72.98% # Type of FU issued
system.cpu.iq.FU_type_0::FloatAdd                 214      0.04%     73.01% # Type of FU issued
system.cpu.iq.FU_type_0::FloatCmp                   0      0.00%     73.01% # Type of FU issued
system.cpu.iq.FU_type_0::FloatCvt                   0      0.00%     73.01% # Type of FU issued
system.cpu.iq.FU_type_0::FloatMult                  0      0.00%     73.01% # Type of FU issued
system.cpu.iq.FU_type_0::FloatMultAcc               0      0.00%     73.01% # Type of FU issued
system.cpu.iq.FU_type_0::FloatDiv                   0      0.00%     73.01% # Type of FU issued
system.cpu.iq.FU_type_0::FloatMisc                  0      0.00%     73.01% # Type of FU issued
system.cpu.iq.FU_type_0::FloatSqrt                  0      0.00%     73.01% # Type of FU issued
system.cpu.iq.FU_type_0::SimdAdd                  375      0.06%     73.08% # Type of FU issued
system.cpu.iq.FU_type_0::SimdAddAcc                 0      0.00%     73.08% # Type of FU issued
system.cpu.iq.FU_type_0::SimdAlu                   98      0.02%     73.09% # Type of FU issued
system.cpu.iq.FU_type_0::SimdCmp                    0      0.00%     73.09% # Type of FU issued
system.cpu.iq.FU_type_0::SimdCvt                  149      0.02%     73.12% # Type of FU issued
system.cpu.iq.FU_type_0::SimdMisc                 258      0.04%     73.16% # Type of FU issued
system.cpu.iq.FU_type_0::SimdMult                   0      0.00%     73.16% # Type of FU issued
system.cpu.iq.FU_type_0::SimdMultAcc                0      0.00%     73.16% # Type of FU issued
system.cpu.iq.FU_type_0::SimdShift                186      0.03%     73.19% # Type of FU issued
system.cpu.iq.FU_type_0::SimdShiftAcc               0      0.00%     73.19% # Type of FU issued
system.cpu.iq.FU_type_0::SimdSqrt                   0      0.00%     73.19% # Type of FU issued
system.cpu.iq.FU_type_0::SimdFloatAdd               0      0.00%     73.19% # Type of FU issued
system.cpu.iq.FU_type_0::SimdFloatAlu               0      0.00%     73.19% # Type of FU issued
system.cpu.iq.FU_type_0::SimdFloatCmp               0      0.00%     73.19% # Type of FU issued
system.cpu.iq.FU_type_0::SimdFloatCvt               0      0.00%     73.19% # Type of FU issued
system.cpu.iq.FU_type_0::SimdFloatDiv               0      0.00%     73.19% # Type of FU issued
system.cpu.iq.FU_type_0::SimdFloatMisc              0      0.00%     73.19% # Type of FU issued
system.cpu.iq.FU_type_0::SimdFloatMult              0      0.00%     73.19% # Type of FU issued
system.cpu.iq.FU_type_0::SimdFloatMultAcc            0      0.00%     73.19% # Type of FU issued
system.cpu.iq.FU_type_0::SimdFloatSqrt              0      0.00%     73.19% # Type of FU issued
system.cpu.iq.FU_type_0::SimdAes                    0      0.00%     73.19% # Type of FU issued
system.cpu.iq.FU_type_0::SimdAesMix                 0      0.00%     73.19% # Type of FU issued
system.cpu.iq.FU_type_0::SimdSha1Hash               0      0.00%     73.19% # Type of FU issued
system.cpu.iq.FU_type_0::SimdSha1Hash2              0      0.00%     73.19% # Type of FU issued
system.cpu.iq.FU_type_0::SimdSha256Hash             0      0.00%     73.19% # Type of FU issued
system.cpu.iq.FU_type_0::SimdSha256Hash2            0      0.00%     73.19% # Type of FU issued
system.cpu.iq.FU_type_0::SimdShaSigma2              0      0.00%     73.19% # Type of FU issued
system.cpu.iq.FU_type_0::SimdShaSigma3              0      0.00%     73.19% # Type of FU issued
system.cpu.iq.FU_type_0::MemRead               111065     18.57%     91.76% # Type of FU issued
system.cpu.iq.FU_type_0::MemWrite               47121      7.88%     99.64% # Type of FU issued
system.cpu.iq.FU_type_0::FloatMemRead             907      0.15%     99.79% # Type of FU issued
system.cpu.iq.FU_type_0::FloatMemWrite           1267      0.21%    100.00% # Type of FU issued
system.cpu.iq.FU_type_0::IprAccess                  0      0.00%    100.00% # Type of FU issued
system.cpu.iq.FU_type_0::InstPrefetch               0      0.00%    100.00% # Type of FU issued
system.cpu.iq.FU_type_0::total                 598182                       # Type of FU issued
system.cpu.iq.rate                           1.188869                       # Inst issue rate
system.cpu.iq.fu_busy_cnt                       38783                       # FU busy when requested
system.cpu.iq.fu_busy_rate                   0.064835                       # FU busy rate (busy events/executed inst)
system.cpu.iq.int_inst_queue_reads            1694298                       # Number of integer instruction queue reads
system.cpu.iq.int_inst_queue_writes            747242                       # Number of integer instruction queue writes
system.cpu.iq.int_inst_queue_wakeup_accesses       577113                       # Number of integer instruction queue wakeup accesses
system.cpu.iq.fp_inst_queue_reads                8590                       # Number of floating instruction queue reads
system.cpu.iq.fp_inst_queue_writes               4117                       # Number of floating instruction queue writes
system.cpu.iq.fp_inst_queue_wakeup_accesses         3952                       # Number of floating instruction queue wakeup accesses
system.cpu.iq.vec_inst_queue_reads                  0                       # Number of vector instruction queue reads
system.cpu.iq.vec_inst_queue_writes                 0                       # Number of vector instruction queue writes
system.cpu.iq.vec_inst_queue_wakeup_accesses            0                       # Number of vector instruction queue wakeup accesses
system.cpu.iq.int_alu_accesses                 631709                       # Number of integer alu accesses
system.cpu.iq.fp_alu_accesses                    4603                       # Number of floating point alu accesses
system.cpu.iq.vec_alu_accesses                      0                       # Number of vector alu accesses
system.cpu.iew.lsq.thread0.forwLoads            14715                       # Number of loads that had data forwarded from stores
system.cpu.iew.lsq.thread0.invAddrLoads             0                       # Number of loads ignored due to an invalid address
system.cpu.iew.lsq.thread0.squashedLoads        28477                       # Number of loads squashed
system.cpu.iew.lsq.thread0.ignoredResponses          233                       # Number of memory responses ignored because the instruction is squashed
system.cpu.iew.lsq.thread0.memOrderViolation           76                       # Number of memory ordering violations
system.cpu.iew.lsq.thread0.squashedStores         9178                       # Number of stores squashed
system.cpu.iew.lsq.thread0.invAddrSwpfs             0                       # Number of software prefetches ignored due to an invalid address
system.cpu.iew.lsq.thread0.blockedLoads             0                       # Number of blocked loads due to partial load-store forwarding
system.cpu.iew.lsq.thread0.rescheduledLoads            1                       # Number of loads that were rescheduled
system.cpu.iew.lsq.thread0.cacheBlocked            14                       # Number of times an access to memory failed due to the cache being blocked
system.cpu.iew.iewIdleCycles                        0                       # Number of cycles IEW is idle
system.cpu.iew.iewSquashCycles                   5315                       # Number of cycles IEW is squashing
system.cpu.iew.iewBlockCycles                    6766                       # Number of cycles IEW is blocking
system.cpu.iew.iewUnblockCycles                  1605                       # Number of cycles IEW is unblocking
system.cpu.iew.iewDispatchedInsts              641300                       # Number of instructions dispatched to IQ
system.cpu.iew.iewDispSquashedInsts              3886                       # Number of squashed instructions skipped by dispatch
system.cpu.iew.iewDispLoadInsts                122191                       # Number of dispatched load instructions
system.cpu.iew.iewDispStoreInsts                53616                       # Number of dispatched store instructions
system.cpu.iew.iewDispNonSpecInsts                 56                       # Number of dispatched non-speculative instructions
system.cpu.iew.iewIQFullEvents                     30                       # Number of times the IQ has become full, causing a stall
system.cpu.iew.iewLSQFullEvents                  1562                       # Number of times the LSQ has become full, causing a stall
system.cpu.iew.memOrderViolationEvents             76                       # Number of memory order violations
system.cpu.iew.predictedTakenIncorrect           1266                       # Number of branches that were predicted taken incorrectly
system.cpu.iew.predictedNotTakenIncorrect         4541                       # Number of branches that were predicted not taken incorrectly
system.cpu.iew.branchMispredicts                 5807                       # Number of branch mispredicts detected at execute
system.cpu.iew.iewExecutedInsts                586079                       # Number of executed instructions
system.cpu.iew.iewExecLoadInsts                109146                       # Number of load instructions executed
system.cpu.iew.iewExecSquashedInsts             12103                       # Number of squashed instructions skipped in execute
system.cpu.iew.exec_swp                             0                       # number of swp insts executed
system.cpu.iew.exec_nop                             0                       # number of nop insts executed
system.cpu.iew.exec_refs                       156593                       # number of memory reference insts executed
system.cpu.iew.exec_branches                    60831                       # Number of branches executed
system.cpu.iew.exec_stores                      47447                       # Number of stores executed
system.cpu.iew.exec_rate                     1.164815                       # Inst execution rate
system.cpu.iew.wb_sent                         583262                       # cumulative count of insts sent to commit
system.cpu.iew.wb_count                        581065                       # cumulative count of insts written-back
system.cpu.iew.wb_producers                    436633                       # num instructions producing a value
system.cpu.iew.wb_consumers                    612455                       # num instructions consuming a value
system.cpu.iew.wb_rate                       1.154850                       # insts written-back per cycle
system.cpu.iew.wb_fanout                     0.712923                       # average fanout of values written-back
system.cpu.commit.commitSquashedInsts          101858                       # The number of squashed insts skipped by commit
system.cpu.commit.commitNonSpecStalls              15                       # The number of times commit has been forced to stall to communicate backwards
system.cpu.commit.branchMispredicts              5242                       # The number of times a branch was mispredicted
system.cpu.commit.committed_per_cycle::samples       454100                       # Number of insts commited each cycle
system.cpu.commit.committed_per_cycle::mean     1.170042                       # Number of insts commited each cycle
system.cpu.commit.committed_per_cycle::stdev     0.932150                       # Number of insts commited each cycle
system.cpu.commit.committed_per_cycle::underflows            0      0.00%      0.00% # Number of insts commited each cycle
system.cpu.commit.committed_per_cycle::0       165241     36.39%     36.39% # Number of insts commited each cycle
system.cpu.commit.committed_per_cycle::1        46402     10.22%     46.61% # Number of insts commited each cycle
system.cpu.commit.committed_per_cycle::2       242457     53.39%    100.00% # Number of insts commited each cycle
system.cpu.commit.committed_per_cycle::overflows            0      0.00%    100.00% # Number of insts commited each cycle
system.cpu.commit.committed_per_cycle::min_value            0                       # Number of insts commited each cycle
system.cpu.commit.committed_per_cycle::max_value            2                       # Number of insts commited each cycle
system.cpu.commit.committed_per_cycle::total       454100                       # Number of insts commited each cycle
system.cpu.commit.committedInsts               298818                       # Number of instructions committed
system.cpu.commit.committedOps                 531316                       # Number of ops (including micro ops) committed
system.cpu.commit.swp_count                         0                       # Number of s/w prefetches committed
system.cpu.commit.refs                         138152                       # Number of memory references committed
system.cpu.commit.loads                         93714                       # Number of loads committed
system.cpu.commit.membars                           0                       # Number of memory barriers committed
system.cpu.commit.branches                      57499                       # Number of branches committed
system.cpu.commit.vec_insts                         0                       # Number of committed Vector instructions.
system.cpu.commit.fp_insts                       3899                       # Number of committed floating point instructions.
system.cpu.commit.int_insts                    528691                       # Number of committed integer instructions.
system.cpu.commit.function_calls                 2608                       # Number of function calls committed.
system.cpu.commit.op_class_0::No_OpClass          313      0.06%      0.06% # Class of committed instruction
system.cpu.commit.op_class_0::IntAlu           390958     73.58%     73.64% # Class of committed instruction
system.cpu.commit.op_class_0::IntMult             602      0.11%     73.76% # Class of committed instruction
system.cpu.commit.op_class_0::IntDiv               28      0.01%     73.76% # Class of committed instruction
system.cpu.commit.op_class_0::FloatAdd            214      0.04%     73.80% # Class of committed instruction
system.cpu.commit.op_class_0::FloatCmp              0      0.00%     73.80% # Class of committed instruction
system.cpu.commit.op_class_0::FloatCvt              0      0.00%     73.80% # Class of committed instruction
system.cpu.commit.op_class_0::FloatMult             0      0.00%     73.80% # Class of committed instruction
system.cpu.commit.op_class_0::FloatMultAcc            0      0.00%     73.80% # Class of committed instruction
system.cpu.commit.op_class_0::FloatDiv              0      0.00%     73.80% # Class of committed instruction
system.cpu.commit.op_class_0::FloatMisc             0      0.00%     73.80% # Class of committed instruction
system.cpu.commit.op_class_0::FloatSqrt             0      0.00%     73.80% # Class of committed instruction
system.cpu.commit.op_class_0::SimdAdd             374      0.07%     73.87% # Class of committed instruction
system.cpu.commit.op_class_0::SimdAddAcc            0      0.00%     73.87% # Class of committed instruction
system.cpu.commit.op_class_0::SimdAlu              94      0.02%     73.89% # Class of committed instruction
system.cpu.commit.op_class_0::SimdCmp               0      0.00%     73.89% # Class of committed instruction
system.cpu.commit.op_class_0::SimdCvt             140      0.03%     73.92% # Class of committed instruction
system.cpu.commit.op_class_0::SimdMisc            255      0.05%     73.96% # Class of committed instruction
system.cpu.commit.op_class_0::SimdMult              0      0.00%     73.96% # Class of committed instruction
system.cpu.commit.op_class_0::SimdMultAcc            0      0.00%     73.96% # Class of committed instruction
system.cpu.commit.op_class_0::SimdShift           186      0.04%     74.00% # Class of committed instruction
system.cpu.commit.op_class_0::SimdShiftAcc            0      0.00%     74.00% # Class of committed instruction
system.cpu.commit.op_class_0::SimdSqrt              0      0.00%     74.00% # Class of committed instruction
system.cpu.commit.op_class_0::SimdFloatAdd            0      0.00%     74.00% # Class of committed instruction
system.cpu.commit.op_class_0::SimdFloatAlu            0      0.00%     74.00% # Class of committed instruction
system.cpu.commit.op_class_0::SimdFloatCmp            0      0.00%     74.00% # Class of committed instruction
system.cpu.commit.op_class_0::SimdFloatCvt            0      0.00%     74.00% # Class of committed instruction
system.cpu.commit.op_class_0::SimdFloatDiv            0      0.00%     74.00% # Class of committed instruction
system.cpu.commit.op_class_0::SimdFloatMisc            0      0.00%     74.00% # Class of committed instruction
system.cpu.commit.op_class_0::SimdFloatMult            0      0.00%     74.00% # Class of committed instruction
system.cpu.commit.op_class_0::SimdFloatMultAcc            0      0.00%     74.00% # Class of committed instruction
system.cpu.commit.op_class_0::SimdFloatSqrt            0      0.00%     74.00% # Class of committed instruction
system.cpu.commit.op_class_0::SimdAes               0      0.00%     74.00% # Class of committed instruction
system.cpu.commit.op_class_0::SimdAesMix            0      0.00%     74.00% # Class of committed instruction
system.cpu.commit.op_class_0::SimdSha1Hash            0      0.00%     74.00% # Class of committed instruction
system.cpu.commit.op_class_0::SimdSha1Hash2            0      0.00%     74.00% # Class of committed instruction
system.cpu.commit.op_class_0::SimdSha256Hash            0      0.00%     74.00% # Class of committed instruction
system.cpu.commit.op_class_0::SimdSha256Hash2            0      0.00%     74.00% # Class of committed instruction
system.cpu.commit.op_class_0::SimdShaSigma2            0      0.00%     74.00% # Class of committed instruction
system.cpu.commit.op_class_0::SimdShaSigma3            0      0.00%     74.00% # Class of committed instruction
system.cpu.commit.op_class_0::MemRead           92828     17.47%     91.47% # Class of committed instruction
system.cpu.commit.op_class_0::MemWrite          43213      8.13%     99.60% # Class of committed instruction
system.cpu.commit.op_class_0::FloatMemRead          886      0.17%     99.77% # Class of committed instruction
system.cpu.commit.op_class_0::FloatMemWrite         1225      0.23%    100.00% # Class of committed instruction
system.cpu.commit.op_class_0::IprAccess             0      0.00%    100.00% # Class of committed instruction
system.cpu.commit.op_class_0::InstPrefetch            0      0.00%    100.00% # Class of committed instruction
system.cpu.commit.op_class_0::total            531316                       # Class of committed instruction
system.cpu.commit.bw_lim_events                242457                       # number cycles where commit BW limit reached
system.cpu.rob.rob_reads                       844817                       # The number of ROB reads
system.cpu.rob.rob_writes                     1275593                       # The number of ROB writes
system.cpu.timesIdled                             470                       # Number of times that the entire CPU went into an idle state and unscheduled itself
system.cpu.idleCycles                           39822                       # Total number of cycles that the CPU has spent unscheduled due to idling
system.cpu.committedInsts                      298818                       # Number of Instructions Simulated
system.cpu.committedOps                        531316                       # Number of Ops (including micro ops) Simulated
system.cpu.cpi                               1.683808                       # CPI: Cycles Per Instruction
system.cpu.cpi_total                         1.683808                       # CPI: Total CPI of All Threads
system.cpu.ipc                               0.593892                       # IPC: Instructions Per Cycle
system.cpu.ipc_total                         0.593892                       # IPC: Total IPC of All Threads
system.cpu.int_regfile_reads                   888426                       # number of integer regfile reads
system.cpu.int_regfile_writes                  471153                       # number of integer regfile writes
system.cpu.fp_regfile_reads                      4878                       # number of floating regfile reads
system.cpu.fp_regfile_writes                     2629                       # number of floating regfile writes
system.cpu.cc_regfile_reads                    278972                       # number of cc regfile reads
system.cpu.cc_regfile_writes                   179022                       # number of cc regfile writes
system.cpu.misc_regfile_reads                  284403                       # number of misc regfile reads
system.cpu.dcache.tags.pwrStateResidencyTicks::UNDEFINED    251575500                       # Cumulative time (in ticks) in various power states
system.cpu.dcache.tags.tagsinuse           262.441073                       # Cycle average of tags in use
system.cpu.dcache.tags.total_refs              138599                       # Total number of references to valid blocks.
system.cpu.dcache.tags.sampled_refs               326                       # Sample count of references to valid blocks.
system.cpu.dcache.tags.avg_refs            425.150307                       # Average number of references to valid blocks.
system.cpu.dcache.tags.warmup_cycle            170000                       # Cycle when the warmup percentage was hit.
system.cpu.dcache.tags.occ_blocks::.cpu.data   262.441073                       # Average occupied blocks per requestor
system.cpu.dcache.tags.occ_percent::.cpu.data     0.512580                       # Average percentage of cache occupancy
system.cpu.dcache.tags.occ_percent::total     0.512580                       # Average percentage of cache occupancy
system.cpu.dcache.tags.occ_task_id_blocks::1024          324                       # Occupied blocks per task id
system.cpu.dcache.tags.age_task_id_blocks_1024::0           14                       # Occupied blocks per task id
system.cpu.dcache.tags.age_task_id_blocks_1024::1           15                       # Occupied blocks per task id
system.cpu.dcache.tags.age_task_id_blocks_1024::2          295                       # Occupied blocks per task id
system.cpu.dcache.tags.occ_task_id_percent::1024     0.632812                       # Percentage of cache occupancy per task id
system.cpu.dcache.tags.tag_accesses           1110246                       # Number of tag accesses
system.cpu.dcache.tags.data_accesses          1110246                       # Number of data accesses
system.cpu.dcache.pwrStateResidencyTicks::UNDEFINED    251575500                       # Cumulative time (in ticks) in various power states
system.cpu.dcache.ReadReq_hits::.cpu.data        94008                       # number of ReadReq hits
system.cpu.dcache.ReadReq_hits::total           94008                       # number of ReadReq hits
system.cpu.dcache.WriteReq_hits::.cpu.data        44265                       # number of WriteReq hits
system.cpu.dcache.WriteReq_hits::total          44265                       # number of WriteReq hits
system.cpu.dcache.demand_hits::.cpu.data       138273                       # number of demand (read+write) hits
system.cpu.dcache.demand_hits::total           138273                       # number of demand (read+write) hits
system.cpu.dcache.overall_hits::.cpu.data       138273                       # number of overall hits
system.cpu.dcache.overall_hits::total          138273                       # number of overall hits
system.cpu.dcache.ReadReq_misses::.cpu.data          294                       # number of ReadReq misses
system.cpu.dcache.ReadReq_misses::total           294                       # number of ReadReq misses
system.cpu.dcache.WriteReq_misses::.cpu.data          173                       # number of WriteReq misses
system.cpu.dcache.WriteReq_misses::total          173                       # number of WriteReq misses
system.cpu.dcache.demand_misses::.cpu.data          467                       # number of demand (read+write) misses
system.cpu.dcache.demand_misses::total            467                       # number of demand (read+write) misses
system.cpu.dcache.overall_misses::.cpu.data          467                       # number of overall misses
system.cpu.dcache.overall_misses::total           467                       # number of overall misses
system.cpu.dcache.ReadReq_miss_latency::.cpu.data     22551000                       # number of ReadReq miss cycles
system.cpu.dcache.ReadReq_miss_latency::total     22551000                       # number of ReadReq miss cycles
system.cpu.dcache.WriteReq_miss_latency::.cpu.data     15167000                       # number of WriteReq miss cycles
system.cpu.dcache.WriteReq_miss_latency::total     15167000                       # number of WriteReq miss cycles
system.cpu.dcache.demand_miss_latency::.cpu.data     37718000                       # number of demand (read+write) miss cycles
system.cpu.dcache.demand_miss_latency::total     37718000                       # number of demand (read+write) miss cycles
system.cpu.dcache.overall_miss_latency::.cpu.data     37718000                       # number of overall miss cycles
system.cpu.dcache.overall_miss_latency::total     37718000                       # number of overall miss cycles
system.cpu.dcache.ReadReq_accesses::.cpu.data        94302                       # number of ReadReq accesses(hits+misses)
system.cpu.dcache.ReadReq_accesses::total        94302                       # number of ReadReq accesses(hits+misses)
system.cpu.dcache.WriteReq_accesses::.cpu.data        44438                       # number of WriteReq accesses(hits+misses)
system.cpu.dcache.WriteReq_accesses::total        44438                       # number of WriteReq accesses(hits+misses)
system.cpu.dcache.demand_accesses::.cpu.data       138740                       # number of demand (read+write) accesses
system.cpu.dcache.demand_accesses::total       138740                       # number of demand (read+write) accesses
system.cpu.dcache.overall_accesses::.cpu.data       138740                       # number of overall (read+write) accesses
system.cpu.dcache.overall_accesses::total       138740                       # number of overall (read+write) accesses
system.cpu.dcache.ReadReq_miss_rate::.cpu.data     0.003118                       # miss rate for ReadReq accesses
system.cpu.dcache.ReadReq_miss_rate::total     0.003118                       # miss rate for ReadReq accesses
system.cpu.dcache.WriteReq_miss_rate::.cpu.data     0.003893                       # miss rate for WriteReq accesses
system.cpu.dcache.WriteReq_miss_rate::total     0.003893                       # miss rate for WriteReq accesses
system.cpu.dcache.demand_miss_rate::.cpu.data     0.003366                       # miss rate for demand accesses
system.cpu.dcache.demand_miss_rate::total     0.003366                       # miss rate for demand accesses
system.cpu.dcache.overall_miss_rate::.cpu.data     0.003366                       # miss rate for overall accesses
system.cpu.dcache.overall_miss_rate::total     0.003366                       # miss rate for overall accesses
system.cpu.dcache.ReadReq_avg_miss_latency::.cpu.data 76704.081633                       # average ReadReq miss latency
system.cpu.dcache.ReadReq_avg_miss_latency::total 76704.081633                       # average ReadReq miss latency
system.cpu.dcache.WriteReq_avg_miss_latency::.cpu.data 87670.520231                       # average WriteReq miss latency
system.cpu.dcache.WriteReq_avg_miss_latency::total 87670.520231                       # average WriteReq miss latency
system.cpu.dcache.demand_avg_miss_latency::.cpu.data 80766.595289                       # average overall miss latency
system.cpu.dcache.demand_avg_miss_latency::total 80766.595289                       # average overall miss latency
[...]
system.l3bus.snoop_fanout::overflows                0      0.00%    100.00% # Request fanout histogram
system.l3bus.snoop_fanout::min_value                0                       # Request fanout histogram
system.l3bus.snoop_fanout::max_value                0                       # Request fanout histogram
system.l3bus.snoop_fanout::total                 1083                       # Request fanout histogram
system.l3bus.reqLayer0.occupancy               541500                       # Layer occupancy (ticks)
system.l3bus.reqLayer0.utilization                0.2                       # Layer utilization (%)
system.l3bus.respLayer0.occupancy             2707500                       # Layer occupancy (ticks)
system.l3bus.respLayer0.utilization               1.1                       # Layer utilization (%)
system.l3cache.tags.pwrStateResidencyTicks::UNDEFINED    251575500                       # Cumulative time (in ticks) in various power states
system.l3cache.tags.tagsinuse              859.581721                       # Cycle average of tags in use
system.l3cache.tags.total_refs                   1083                       # Total number of references to valid blocks.
system.l3cache.tags.sampled_refs                 1083                       # Sample count of references to valid blocks.
system.l3cache.tags.avg_refs                        1                       # Average number of references to valid blocks.
system.l3cache.tags.warmup_cycle                76000                       # Cycle when the warmup percentage was hit.
system.l3cache.tags.occ_blocks::.cpu.inst   599.231609                       # Average occupied blocks per requestor
system.l3cache.tags.occ_blocks::.cpu.data   260.350112                       # Average occupied blocks per requestor
system.l3cache.tags.occ_percent::.cpu.inst     0.018287                       # Average percentage of cache occupancy
system.l3cache.tags.occ_percent::.cpu.data     0.007945                       # Average percentage of cache occupancy
system.l3cache.tags.occ_percent::total       0.026232                       # Average percentage of cache occupancy
system.l3cache.tags.occ_task_id_blocks::1024         1083                       # Occupied blocks per task id
system.l3cache.tags.age_task_id_blocks_1024::0           63                       # Occupied blocks per task id
system.l3cache.tags.age_task_id_blocks_1024::1           15                       # Occupied blocks per task id
system.l3cache.tags.age_task_id_blocks_1024::2         1005                       # Occupied blocks per task id
system.l3cache.tags.occ_task_id_percent::1024     0.033051                       # Percentage of cache occupancy per task id
system.l3cache.tags.tag_accesses                18411                       # Number of tag accesses
system.l3cache.tags.data_accesses               18411                       # Number of data accesses
system.l3cache.pwrStateResidencyTicks::UNDEFINED    251575500                       # Cumulative time (in ticks) in various power states
system.l3cache.ReadExReq_misses::.cpu.data          170                       # number of ReadExReq misses
system.l3cache.ReadExReq_misses::total            170                       # number of ReadExReq misses
system.l3cache.ReadSharedReq_misses::.cpu.inst          763                       # number of ReadSharedReq misses
system.l3cache.ReadSharedReq_misses::.cpu.data          150                       # number of ReadSharedReq misses
system.l3cache.ReadSharedReq_misses::total          913                       # number of ReadSharedReq misses
system.l3cache.demand_misses::.cpu.inst           763                       # number of demand (read+write) misses
system.l3cache.demand_misses::.cpu.data           320                       # number of demand (read+write) misses
system.l3cache.demand_misses::total              1083                       # number of demand (read+write) misses
system.l3cache.overall_misses::.cpu.inst          763                       # number of overall misses
system.l3cache.overall_misses::.cpu.data          320                       # number of overall misses
system.l3cache.overall_misses::total             1083                       # number of overall misses
system.l3cache.ReadExReq_miss_latency::.cpu.data     12650000                       # number of ReadExReq miss cycles
system.l3cache.ReadExReq_miss_latency::total     12650000                       # number of ReadExReq miss cycles
system.l3cache.ReadSharedReq_miss_latency::.cpu.inst     53978500                       # number of ReadSharedReq miss cycles
system.l3cache.ReadSharedReq_miss_latency::.cpu.data     10915500                       # number of ReadSharedReq miss cycles
system.l3cache.ReadSharedReq_miss_latency::total     64894000                       # number of ReadSharedReq miss cycles
system.l3cache.demand_miss_latency::.cpu.inst     53978500                       # number of demand (read+write) miss cycles
system.l3cache.demand_miss_latency::.cpu.data     23565500                       # number of demand (read+write) miss cycles
system.l3cache.demand_miss_latency::total     77544000                       # number of demand (read+write) miss cycles
system.l3cache.overall_miss_latency::.cpu.inst     53978500                       # number of overall miss cycles
system.l3cache.overall_miss_latency::.cpu.data     23565500                       # number of overall miss cycles
system.l3cache.overall_miss_latency::total     77544000                       # number of overall miss cycles
system.l3cache.ReadExReq_accesses::.cpu.data          170                       # number of ReadExReq accesses(hits+misses)
system.l3cache.ReadExReq_accesses::total          170                       # number of ReadExReq accesses(hits+misses)
system.l3cache.ReadSharedReq_accesses::.cpu.inst          763                       # number of ReadSharedReq accesses(hits+misses)
system.l3cache.ReadSharedReq_accesses::.cpu.data          150                       # number of ReadSharedReq accesses(hits+misses)
system.l3cache.ReadSharedReq_accesses::total          913                       # number of ReadSharedReq accesses(hits+misses)
system.l3cache.demand_accesses::.cpu.inst          763                       # number of demand (read+write) accesses
system.l3cache.demand_accesses::.cpu.data          320                       # number of demand (read+write) accesses
system.l3cache.demand_accesses::total            1083                       # number of demand (read+write) accesses
system.l3cache.overall_accesses::.cpu.inst          763                       # number of overall (read+write) accesses
system.l3cache.overall_accesses::.cpu.data          320                       # number of overall (read+write) accesses
system.l3cache.overall_accesses::total           1083                       # number of overall (read+write) accesses
system.l3cache.ReadExReq_miss_rate::.cpu.data            1                       # miss rate for ReadExReq accesses
system.l3cache.ReadExReq_miss_rate::total            1                       # miss rate for ReadExReq accesses
system.l3cache.ReadSharedReq_miss_rate::.cpu.inst            1                       # miss rate for ReadSharedReq accesses
system.l3cache.ReadSharedReq_miss_rate::.cpu.data            1                       # miss rate for ReadSharedReq accesses
system.l3cache.ReadSharedReq_miss_rate::total            1                       # miss rate for ReadSharedReq accesses
system.l3cache.demand_miss_rate::.cpu.inst            1                       # miss rate for demand accesses
system.l3cache.demand_miss_rate::.cpu.data            1                       # miss rate for demand accesses
system.l3cache.demand_miss_rate::total              1                       # miss rate for demand accesses
system.l3cache.overall_miss_rate::.cpu.inst            1                       # miss rate for overall accesses
system.l3cache.overall_miss_rate::.cpu.data            1                       # miss rate for overall accesses
system.l3cache.overall_miss_rate::total             1                       # miss rate for overall accesses
system.l3cache.ReadExReq_avg_miss_latency::.cpu.data 74411.764706                       # average ReadExReq miss latency
system.l3cache.ReadExReq_avg_miss_latency::total 74411.764706                       # average ReadExReq miss latency
system.l3cache.ReadSharedReq_avg_miss_latency::.cpu.inst 70745.085190                       # average ReadSharedReq miss latency
system.l3cache.ReadSharedReq_avg_miss_latency::.cpu.data        72770                       # average ReadSharedReq miss latency
system.l3cache.ReadSharedReq_avg_miss_latency::total 71077.765608                       # average ReadSharedReq miss latency
system.l3cache.demand_avg_miss_latency::.cpu.inst 70745.085190                       # average overall miss latency
system.l3cache.demand_avg_miss_latency::.cpu.data 73642.187500                       # average overall miss latency
system.l3cache.demand_avg_miss_latency::total 71601.108033                       # average overall miss latency
system.l3cache.overall_avg_miss_latency::.cpu.inst 70745.085190                       # average overall miss latency
system.l3cache.overall_avg_miss_latency::.cpu.data 73642.187500                       # average overall miss latency
system.l3cache.overall_avg_miss_latency::total 71601.108033                       # average overall miss latency
system.l3cache.blocked_cycles::no_mshrs             0                       # number of cycles access was blocked
system.l3cache.blocked_cycles::no_targets            0                       # number of cycles access was blocked
system.l3cache.blocked::no_mshrs                    0                       # number of cycles access was blocked
system.l3cache.blocked::no_targets                  0                       # number of cycles access was blocked
system.l3cache.avg_blocked_cycles::no_mshrs          nan                       # average number of cycles each access was blocked
system.l3cache.avg_blocked_cycles::no_targets          nan                       # average number of cycles each access was blocked
system.l3cache.ReadExReq_mshr_misses::.cpu.data          170                       # number of ReadExReq MSHR misses
system.l3cache.ReadExReq_mshr_misses::total          170                       # number of ReadExReq MSHR misses
system.l3cache.ReadSharedReq_mshr_misses::.cpu.inst          763                       # number of ReadSharedReq MSHR misses
system.l3cache.ReadSharedReq_mshr_misses::.cpu.data          150                       # number of ReadSharedReq MSHR misses
system.l3cache.ReadSharedReq_mshr_misses::total          913                       # number of ReadSharedReq MSHR misses
system.l3cache.demand_mshr_misses::.cpu.inst          763                       # number of demand (read+write) MSHR misses
system.l3cache.demand_mshr_misses::.cpu.data          320                       # number of demand (read+write) MSHR misses
system.l3cache.demand_mshr_misses::total         1083                       # number of demand (read+write) MSHR misses
system.l3cache.overall_mshr_misses::.cpu.inst          763                       # number of overall MSHR misses
system.l3cache.overall_mshr_misses::.cpu.data          320                       # number of overall MSHR misses
system.l3cache.overall_mshr_misses::total         1083                       # number of overall MSHR misses
system.l3cache.ReadExReq_mshr_miss_latency::.cpu.data     12310000                       # number of ReadExReq MSHR miss cycles
system.l3cache.ReadExReq_mshr_miss_latency::total     12310000                       # number of ReadExReq MSHR miss cycles
system.l3cache.ReadSharedReq_mshr_miss_latency::.cpu.inst     52452500                       # number of ReadSharedReq MSHR miss cycles
system.l3cache.ReadSharedReq_mshr_miss_latency::.cpu.data     10615500                       # number of ReadSharedReq MSHR miss cycles
system.l3cache.ReadSharedReq_mshr_miss_latency::total     63068000                       # number of ReadSharedReq MSHR miss cycles
system.l3cache.demand_mshr_miss_latency::.cpu.inst     52452500                       # number of demand (read+write) MSHR miss cycles
system.l3cache.demand_mshr_miss_latency::.cpu.data     22925500                       # number of demand (read+write) MSHR miss cycles
system.l3cache.demand_mshr_miss_latency::total     75378000                       # number of demand (read+write) MSHR miss cycles
system.l3cache.overall_mshr_miss_latency::.cpu.inst     52452500                       # number of overall MSHR miss cycles
system.l3cache.overall_mshr_miss_latency::.cpu.data     22925500                       # number of overall MSHR miss cycles
system.l3cache.overall_mshr_miss_latency::total     75378000                       # number of overall MSHR miss cycles
system.l3cache.ReadExReq_mshr_miss_rate::.cpu.data            1                       # mshr miss rate for ReadExReq accesses
system.l3cache.ReadExReq_mshr_miss_rate::total            1                       # mshr miss rate for ReadExReq accesses
system.l3cache.ReadSharedReq_mshr_miss_rate::.cpu.inst            1                       # mshr miss rate for ReadSharedReq accesses
system.l3cache.ReadSharedReq_mshr_miss_rate::.cpu.data            1                       # mshr miss rate for ReadSharedReq accesses
system.l3cache.ReadSharedReq_mshr_miss_rate::total            1                       # mshr miss rate for ReadSharedReq accesses
system.l3cache.demand_mshr_miss_rate::.cpu.inst            1                       # mshr miss rate for demand accesses
system.l3cache.demand_mshr_miss_rate::.cpu.data            1                       # mshr miss rate for demand accesses
system.l3cache.demand_mshr_miss_rate::total            1                       # mshr miss rate for demand accesses
system.l3cache.overall_mshr_miss_rate::.cpu.inst            1                       # mshr miss rate for overall accesses
system.l3cache.overall_mshr_miss_rate::.cpu.data            1                       # mshr miss rate for overall accesses
system.l3cache.overall_mshr_miss_rate::total            1                       # mshr miss rate for overall accesses
system.l3cache.ReadExReq_avg_mshr_miss_latency::.cpu.data 72411.764706                       # average ReadExReq mshr miss latency
system.l3cache.ReadExReq_avg_mshr_miss_latency::total 72411.764706                       # average ReadExReq mshr miss latency
system.l3cache.ReadSharedReq_avg_mshr_miss_latency::.cpu.inst 68745.085190                       # average ReadSharedReq mshr miss latency
system.l3cache.ReadSharedReq_avg_mshr_miss_latency::.cpu.data        70770                       # average ReadSharedReq mshr miss latency
system.l3cache.ReadSharedReq_avg_mshr_miss_latency::total 69077.765608                       # average ReadSharedReq mshr miss latency
system.l3cache.demand_avg_mshr_miss_latency::.cpu.inst 68745.085190                       # average overall mshr miss latency
system.l3cache.demand_avg_mshr_miss_latency::.cpu.data 71642.187500                       # average overall mshr miss latency
system.l3cache.demand_avg_mshr_miss_latency::total 69601.108033                       # average overall mshr miss latency
system.l3cache.overall_avg_mshr_miss_latency::.cpu.inst 68745.085190                       # average overall mshr miss latency
system.l3cache.overall_avg_mshr_miss_latency::.cpu.data 71642.187500                       # average overall mshr miss latency
system.l3cache.overall_avg_mshr_miss_latency::total 69601.108033                       # average overall mshr miss latency
system.l3cache.replacements                         0                       # number of replacements
system.membus.snoop_filter.tot_requests          1083                       # Total number of requests made to the snoop filter.
system.membus.snoop_filter.hit_single_requests            0                       # Number of requests hitting in the snoop filter with a single holder of the requested data.
system.membus.snoop_filter.hit_multi_requests            0                       # Number of requests hitting in the snoop filter with multiple (>1) holders of the requested data.
system.membus.snoop_filter.tot_snoops               0                       # Total number of snoops made to the snoop filter.
system.membus.snoop_filter.hit_single_snoops            0                       # Number of snoops hitting in the snoop filter with a single holder of the requested data.
system.membus.snoop_filter.hit_multi_snoops            0                       # Number of snoops hitting in the snoop filter with multiple (>1) holders of the requested data.
system.membus.pwrStateResidencyTicks::UNDEFINED    251575500                       # Cumulative time (in ticks) in various power states
system.membus.trans_dist::ReadResp                913                       # Transaction distribution
system.membus.trans_dist::ReadExReq               170                       # Transaction distribution
system.membus.trans_dist::ReadExResp              170                       # Transaction distribution
system.membus.trans_dist::ReadSharedReq           913                       # Transaction distribution
system.membus.pkt_count_system.l3cache.mem_side::system.mem_ctrl.port         2166                       # Packet count per connected master and slave (bytes)
system.membus.pkt_count_system.l3cache.mem_side::total         2166                       # Packet count per connected master and slave (bytes)
system.membus.pkt_count::total                   2166                       # Packet count per connected master and slave (bytes)
system.membus.pkt_size_system.l3cache.mem_side::system.mem_ctrl.port        69312                       # Cumulative packet size per connected master and slave (bytes)
system.membus.pkt_size_system.l3cache.mem_side::total        69312                       # Cumulative packet size per connected master and slave (bytes)
system.membus.pkt_size::total                   69312                       # Cumulative packet size per connected master and slave (bytes)
system.membus.snoops                                0                       # Total snoops (count)
system.membus.snoopTraffic                          0                       # Total snoop traffic (bytes)
system.membus.snoop_fanout::samples              1083                       # Request fanout histogram
system.membus.snoop_fanout::mean                    0                       # Request fanout histogram
system.membus.snoop_fanout::stdev                   0                       # Request fanout histogram
system.membus.snoop_fanout::underflows              0      0.00%      0.00% # Request fanout histogram
system.membus.snoop_fanout::0                    1083    100.00%    100.00% # Request fanout histogram
system.membus.snoop_fanout::1                       0      0.00%    100.00% # Request fanout histogram
system.membus.snoop_fanout::overflows               0      0.00%    100.00% # Request fanout histogram
system.membus.snoop_fanout::min_value               0                       # Request fanout histogram
system.membus.snoop_fanout::max_value               0                       # Request fanout histogram
system.membus.snoop_fanout::total                1083                       # Request fanout histogram
system.membus.reqLayer0.occupancy              541500                       # Layer occupancy (ticks)
system.membus.reqLayer0.utilization               0.2                       # Layer utilization (%)
system.membus.respLayer0.occupancy            2934500                       # Layer occupancy (ticks)
system.membus.respLayer0.utilization              1.2                       # Layer utilization (%)

---------- End Simulation Statistics   ----------