
---------- Begin Simulation Statistics ----------
sim_seconds                                  0.010452                       # Number of seconds simulated
sim_ticks                                 10452065500                       # Number of ticks simulated
final_tick                                10452065500                       # Number of ticks from beginning of simulation (restored from checkpoints and never reset)
sim_freq                                 1000000000000                       # Frequency of simulated ticks
host_inst_rate                                 264463                       # Simulator instruction rate (inst/s)
host_op_rate                                   454144                       # Simulator op (including micro ops) rate (op/s)
host_tick_rate                              146748281                       # Simulator tick rate (ticks/s)
host_mem_usage                                 660444                       # Number of bytes of host memory used
host_seconds                                    71.22                       # Real time elapsed on the host
sim_insts                                    18836239                       # Number of instructions simulated
sim_ops                                      32346156                       # Number of ops (including micro ops) simulated
system.clk_domain.voltage_domain.voltage            1                       # Voltage in Volts
system.clk_domain.clock                           500                       # Clock period in ticks
system.mem_ctrl.pwrStateResidencyTicks::UNDEFINED  10452065500                       # Cumulative time (in ticks) in various power states
system.mem_ctrl.bytes_read::.cpu.inst           54912                       # Number of bytes read from this memory
system.mem_ctrl.bytes_read::.cpu.data          107520                       # Number of bytes read from this memory
system.mem_ctrl.bytes_read::total              162432                       # Number of bytes read from this memory
system.mem_ctrl.bytes_inst_read::.cpu.inst        54912                       # Number of instructions bytes read from this memory
system.mem_ctrl.bytes_inst_read::total          54912                       # Number of instructions bytes read from this memory
system.mem_ctrl.num_reads::.cpu.inst              858                       # Number of read requests responded to by this memory
system.mem_ctrl.num_reads::.cpu.data             1680                       # Number of read requests responded to by this memory
system.mem_ctrl.num_reads::total                 2538                       # Number of read requests responded to by this memory
system.mem_ctrl.bw_read::.cpu.inst            5253698                       # Total read bandwidth from this memory (bytes/s)
system.mem_ctrl.bw_read::.cpu.data           10286962                       # Total read bandwidth from this memory (bytes/s)
system.mem_ctrl.bw_read::total               15540660                       # Total read bandwidth from this memory (bytes/s)
system.mem_ctrl.bw_inst_read::.cpu.inst       5253698                       # Instruction read bandwidth from this memory (bytes/s)
system.mem_ctrl.bw_inst_read::total           5253698                       # Instruction read bandwidth from this memory (bytes/s)
system.mem_ctrl.bw_total::.cpu.inst           5253698                       # Total bandwidth to/from this memory (bytes/s)
system.mem_ctrl.bw_total::.cpu.data          10286962                       # Total bandwidth to/from this memory (bytes/s)
system.mem_ctrl.bw_total::total              15540660                       # Total bandwidth to/from this memory (bytes/s)
system.mem_ctrl.avgPriority_.cpu.inst::samples       858.00                       # Average QoS priority value for accepted requests
system.mem_ctrl.avgPriority_.cpu.data::samples      1680.00                       # Average QoS priority value for accepted requests
system.mem_ctrl.priorityMinLatency       0.000000018750                       # per QoS priority minimum request to response latency (s)
system.mem_ctrl.priorityMaxLatency       0.000001107250                       # per QoS priority maximum request to response latency (s)
system.mem_ctrl.numReadWriteTurnArounds             0                       # Number of turnarounds from READ to WRITE
system.mem_ctrl.numWriteReadTurnArounds             0                       # Number of turnarounds from WRITE to READ
system.mem_ctrl.numStayReadState                 5691                       # Number of times bus staying in READ state
system.mem_ctrl.numStayWriteState                   0                       # Number of times bus staying in WRITE state
system.mem_ctrl.readReqs                         2538                       # Number of read requests accepted
system.mem_ctrl.writeReqs                           0                       # Number of write requests accepted
system.mem_ctrl.readBursts                       2538                       # Number of DRAM read bursts, including those serviced by the write queue
system.mem_ctrl.writeBursts                         0                       # Number of DRAM write bursts, including those merged in the write queue
system.mem_ctrl.bytesReadDRAM                  162432                       # Total number of bytes read from DRAM
system.mem_ctrl.bytesReadWrQ                        0                       # Total number of bytes read from write queue
system.mem_ctrl.bytesWritten                        0                       # Total number of bytes written to DRAM
system.mem_ctrl.bytesReadSys                   162432                       # Total read bytes from the system interface side
system.mem_ctrl.bytesWrittenSys                     0                       # Total written bytes from the system interface side
system.mem_ctrl.servicedByWrQ                       0                       # Number of DRAM read bursts serviced by the write queue
system.mem_ctrl.mergedWrBursts                      0                       # Number of DRAM write bursts merged with an existing one
system.mem_ctrl.neitherReadNorWriteReqs             0                       # Number of requests that are neither read nor write
system.mem_ctrl.perBankRdBursts::0                285                       # Per bank write bursts
system.mem_ctrl.perBankRdBursts::1                154                       # Per bank write bursts
system.mem_ctrl.perBankRdBursts::2                171                       # Per bank write bursts
system.mem_ctrl.perBankRdBursts::3                146                       # Per bank write bursts
system.mem_ctrl.perBankRdBursts::4                159                       # Per bank write bursts
system.mem_ctrl.perBankRdBursts::5                142                       # Per bank write bursts
system.mem_ctrl.perBankRdBursts::6                208                       # Per bank write bursts
system.mem_ctrl.perBankRdBursts::7                229                       # Per bank write bursts
system.mem_ctrl.perBankRdBursts::8                170                       # Per bank write bursts
system.mem_ctrl.perBankRdBursts::9                184                       # Per bank write bursts
system.mem_ctrl.perBankRdBursts::10               163                       # Per bank write bursts
system.mem_ctrl.perBankRdBursts::11               105                       # Per bank write bursts
system.mem_ctrl.perBankRdBursts::12                70                       # Per bank write bursts
system.mem_ctrl.perBankRdBursts::13                75                       # Per bank write bursts
system.mem_ctrl.perBankRdBursts::14               127                       # Per bank write bursts
system.mem_ctrl.perBankRdBursts::15               150                       # Per bank write bursts
system.mem_ctrl.perBankWrBursts::0                  0                       # Per bank write bursts
system.mem_ctrl.perBankWrBursts::1                  0                       # Per bank write bursts
system.mem_ctrl.perBankWrBursts::2                  0                       # Per bank write bursts
system.mem_ctrl.perBankWrBursts::3                  0                       # Per bank write bursts
system.mem_ctrl.perBankWrBursts::4                  0                       # Per bank write bursts
system.mem_ctrl.perBankWrBursts::5                  0                       # Per bank write bursts
system.mem_ctrl.perBankWrBursts::6                  0                       # Per bank write bursts
system.mem_ctrl.perBankWrBursts::7                  0                       # Per bank write bursts
system.mem_ctrl.perBankWrBursts::8                  0                       # Per bank write bursts
system.mem_ctrl.perBankWrBursts::9                  0                       # Per bank write bursts
system.mem_ctrl.perBankWrBursts::10                 0                       # Per bank write bursts
system.mem_ctrl.perBankWrBursts::11                 0                       # Per bank write bursts
system.mem_ctrl.perBankWrBursts::12                 0                       # Per bank write bursts
system.mem_ctrl.perBankWrBursts::13                 0                       # Per bank write bursts
system.mem_ctrl.perBankWrBursts::14                 0                       # Per bank write bursts
system.mem_ctrl.perBankWrBursts::15                 0                       # Per bank write bursts
system.mem_ctrl.numRdRetry                          0                       # Number of times read queue was full causing retry
system.mem_ctrl.numWrRetry                          0                       # Number of times write queue was full causing retry
system.mem_ctrl.totGap                    10451974000                       # Total gap between requests
system.mem_ctrl.readPktSize::0                      0                       # Read request sizes (log2)
system.mem_ctrl.readPktSize::1                      0                       # Read request sizes (log2)
system.mem_ctrl.readPktSize::2                      0                       # Read request sizes (log2)
system.mem_ctrl.readPktSize::3                      0                       # Read request sizes (log2)
system.mem_ctrl.readPktSize::4                      0                       # Read request sizes (log2)
system.mem_ctrl.readPktSize::5                      0                       # Read request sizes (log2)
system.mem_ctrl.readPktSize::6                   2538                       # Read request sizes (log2)
system.mem_ctrl.writePktSize::0                     0                       # Write request sizes (log2)
system.mem_ctrl.writePktSize::1                     0                       # Write request sizes (log2)
system.mem_ctrl.writePktSize::2                     0                       # Write request sizes (log2)
system.mem_ctrl.writePktSize::3                     0                       # Write request sizes (log2)
system.mem_ctrl.writePktSize::4                     0                       # Write request sizes (log2)
system.mem_ctrl.writePktSize::5                     0                       # Write request sizes (log2)
system.mem_ctrl.writePktSize::6                     0                       # Write request sizes (log2)
system.mem_ctrl.rdQLenPdf::0                     2099                       # What read queue length does an incoming req see
system.mem_ctrl.rdQLenPdf::1                      339                       # What read queue length does an incoming req see
system.mem_ctrl.rdQLenPdf::2                       79                       # What read queue length does an incoming req see
system.mem_ctrl.rdQLenPdf::3                       17                       # What read queue length does an incoming req see
system.mem_ctrl.rdQLenPdf::4                        4                       # What read queue length does an incoming req see
system.mem_ctrl.rdQLenPdf::5                        0                       # What read queue length does an incoming req see
system.mem_ctrl.rdQLenPdf::6                        0                       # What read queue length does an incoming req see
system.mem_ctrl.rdQLenPdf::7                        0                       # What read queue length does an incoming req see
system.mem_ctrl.rdQLenPdf::8                        0                       # What read queue length does an incoming req see
system.mem_ctrl.rdQLenPdf::9                        0                       # What read queue length does an incoming req see
system.mem_ctrl.rdQLenPdf::10                       0                       # What read queue length does an incoming req see
system.mem_ctrl.rdQLenPdf::11                       0                       # What read queue length does an incoming req see
system.mem_ctrl.rdQLenPdf::12                       0                       # What read queue length does an incoming req see
system.mem_ctrl.rdQLenPdf::13                       0                       # What read queue length does an incoming req see
system.mem_ctrl.rdQLenPdf::14                       0                       # What read queue length does an incoming req see
system.mem_ctrl.rdQLenPdf::15                       0                       # What read queue length does an incoming req see
system.mem_ctrl.rdQLenPdf::16                       0                       # What read queue length does an incoming req see
system.mem_ctrl.rdQLenPdf::17                       0                       # What read queue length does an incoming req see
system.mem_ctrl.rdQLenPdf::18                       0                       # What read queue length does an incoming req see
system.mem_ctrl.rdQLenPdf::19                       0                       # What read queue length does an incoming req see
system.mem_ctrl.rdQLenPdf::20                       0                       # What read queue length does an incoming req see
system.mem_ctrl.rdQLenPdf::21                       0                       # What read queue length does an incoming req see
system.mem_ctrl.rdQLenPdf::22                       0                       # What read queue length does an incoming req see
system.mem_ctrl.rdQLenPdf::23                       0                       # What read queue length does an incoming req see
system.mem_ctrl.rdQLenPdf::24                       0                       # What read queue length does an incoming req see
system.mem_ctrl.rdQLenPdf::25                       0                       # What read queue length does an incoming req see
system.mem_ctrl.rdQLenPdf::26                       0                       # What read queue length does an incoming req see
system.mem_ctrl.rdQLenPdf::27                       0                       # What read queue length does an incoming req see
system.mem_ctrl.rdQLenPdf::28                       0                       # What read queue length does an incoming req see
system.mem_ctrl.rdQLenPdf::29                       0                       # What read queue length does an incoming req see
system.mem_ctrl.rdQLenPdf::30                       0                       # What read queue length does an incoming req see
system.mem_ctrl.rdQLenPdf::31                       0                       # What read queue length does an incoming req see
system.mem_ctrl.wrQLenPdf::0                        0                       # What write queue length does an incoming req see
system.mem_ctrl.wrQLenPdf::1                        0                       # What write queue length does an incoming req see
system.mem_ctrl.wrQLenPdf::2                        0                       # What write queue length does an incoming req see
system.mem_ctrl.wrQLenPdf::3                        0                       # What write queue length does an incoming req see
system.mem_ctrl.wrQLenPdf::4                        0                       # What write queue length does an incoming req see
system.mem_ctrl.wrQLenPdf::5                        0                       # What write queue length does an incoming req see
system.mem_ctrl.wrQLenPdf::6                        0                       # What write queue length does an incoming req see
system.mem_ctrl.wrQLenPdf::7                        0                       # What write queue length does an incoming req see
system.mem_ctrl.wrQLenPdf::8                        0                       # What write queue length does an incoming req see
system.mem_ctrl.wrQLenPdf::9                        0                       # What write queue length does an incoming req see
system.mem_ctrl.wrQLenPdf::10                       0                       # What write queue length does an incoming req see
system.mem_ctrl.wrQLenPdf::11                       0                       # What write queue length does an incoming req see
system.mem_ctrl.wrQLenPdf::12                       0                       # What write queue length does an incoming req see
system.mem_ctrl.wrQLenPdf::13                       0                       # What write queue length does an incoming req see
system.mem_ctrl.wrQLenPdf::14                       0                       # What write queue length does an incoming req see
system.mem_ctrl.wrQLenPdf::15                       0                       # What write queue length does an incoming req see
system.mem_ctrl.wrQLenPdf::16                       0                       # What write queue length does an incoming req see
system.mem_ctrl.wrQLenPdf::17                       0                       # What write queue length does an incoming req see
system.mem_ctrl.wrQLenPdf::18                       0                       # What write queue length does an incoming req see
system.mem_ctrl.wrQLenPdf::19                       0                       # What write queue length does an incoming req see
system.mem_ctrl.wrQLenPdf::20                       0                       # What write queue length does an incoming req see
system.mem_ctrl.wrQLenPdf::21                       0                       # What write queue length does an incoming req see
system.mem_ctrl.wrQLenPdf::22                       0                       # What write queue length does an incoming req see
system.mem_ctrl.wrQLenPdf::23                       0                       # What write queue length does an incoming req see
system.mem_ctrl.wrQLenPdf::24                       0                       # What write queue length does an incoming req see
system.mem_ctrl.wrQLenPdf::25                       0                       # What write queue length does an incoming req see
system.mem_ctrl.wrQLenPdf::26                       0                       # What write queue length does an incoming req see
system.mem_ctrl.wrQLenPdf::27                       0                       # What write queue length does an incoming req see
system.mem_ctrl.wrQLenPdf::28                       0                       # What write queue length does an incoming req see
system.mem_ctrl.wrQLenPdf::29                       0                       # What write queue length does an incoming req see
system.mem_ctrl.wrQLenPdf::30                       0                       # What write queue length does an incoming req see
system.mem_ctrl.wrQLenPdf::31                       0                       # What write queue length does an incoming req see
system.mem_ctrl.wrQLenPdf::32                       0                       # What write queue length does an incoming req see
system.mem_ctrl.wrQLenPdf::33                       0                       # What write queue length does an incoming req see
system.mem_ctrl.wrQLenPdf::34                       0                       # What write queue length does an incoming req see
system.mem_ctrl.wrQLenPdf::35                       0                       # What write queue length does an incoming req see
system.mem_ctrl.wrQLenPdf::36                       0                       # What write queue length does an incoming req see
system.mem_ctrl.wrQLenPdf::37                       0                       # What write queue length does an incoming req see
system.mem_ctrl.wrQLenPdf::38                       0                       # What write queue length does an incoming req see
system.mem_ctrl.wrQLenPdf::39                       0                       # What write queue length does an incoming req see
system.mem_ctrl.wrQLenPdf::40                       0                       # What write queue length does an incoming req see
system.mem_ctrl.wrQLenPdf::41                       0                       # What write queue length does an incoming req see
system.mem_ctrl.wrQLenPdf::42                       0                       # What write queue length does an incoming req see
system.mem_ctrl.wrQLenPdf::43                       0                       # What write queue length does an incoming req see
system.mem_ctrl.wrQLenPdf::44                       0                       # What write queue length does an incoming req see
system.mem_ctrl.wrQLenPdf::45                       0                       # What write queue length does an incoming req see
system.mem_ctrl.wrQLenPdf::46                       0                       # What write queue length does an incoming req see
system.mem_ctrl.wrQLenPdf::47                       0                       # What write queue length does an incoming req see
system.mem_ctrl.wrQLenPdf::48                       0                       # What write queue length does an incoming req see
system.mem_ctrl.wrQLenPdf::49                       0                       # What write queue length does an incoming req see
system.mem_ctrl.wrQLenPdf::50                       0                       # What write queue length does an incoming req see
system.mem_ctrl.wrQLenPdf::51                       0                       # What write queue length does an incoming req see
system.mem_ctrl.wrQLenPdf::52                       0                       # What write queue length does an incoming req see
system.mem_ctrl.wrQLenPdf::53                       0                       # What write queue length does an incoming req see
system.mem_ctrl.wrQLenPdf::54                       0                       # What write queue length does an incoming req see
system.mem_ctrl.wrQLenPdf::55                       0                       # What write queue length does an incoming req see
system.mem_ctrl.wrQLenPdf::56                       0                       # What write queue length does an incoming req see
system.mem_ctrl.wrQLenPdf::57                       0                       # What write queue length does an incoming req see
system.mem_ctrl.wrQLenPdf::58                       0                       # What write queue length does an incoming req see
system.mem_ctrl.wrQLenPdf::59                       0                       # What write queue length does an incoming req see
system.mem_ctrl.wrQLenPdf::60                       0                       # What write queue length does an incoming req see
system.mem_ctrl.wrQLenPdf::61                       0                       # What write queue length does an incoming req see
system.mem_ctrl.wrQLenPdf::62                       0                       # What write queue length does an incoming req see
system.mem_ctrl.wrQLenPdf::63                       0                       # What write queue length does an incoming req see
system.mem_ctrl.bytesPerActivate::samples          859                       # Bytes accessed per row activation
system.mem_ctrl.bytesPerActivate::mean     186.710128                       # Bytes accessed per row activation
system.mem_ctrl.bytesPerActivate::gmean    117.253227                       # Bytes accessed per row activation
system.mem_ctrl.bytesPerActivate::stdev    248.343610                       # Bytes accessed per row activation
system.mem_ctrl.bytesPerActivate::0-127           454     52.85%     52.85% # Bytes accessed per row activation
system.mem_ctrl.bytesPerActivate::128-255          252     29.34%     82.19% # Bytes accessed per row activation
system.mem_ctrl.bytesPerActivate::256-383           43      5.01%     87.19% # Bytes accessed per row activation
system.mem_ctrl.bytesPerActivate::384-511           31      3.61%     90.80% # Bytes accessed per row activation
system.mem_ctrl.bytesPerActivate::512-639           13      1.51%     92.32% # Bytes accessed per row activation
system.mem_ctrl.bytesPerActivate::640-767            3      0.35%     92.67% # Bytes accessed per row activation
system.mem_ctrl.bytesPerActivate::768-895            8      0.93%     93.60% # Bytes accessed per row activation
system.mem_ctrl.bytesPerActivate::896-1023            4      0.47%     94.06% # Bytes accessed per row activation
system.mem_ctrl.bytesPerActivate::1024-1151           51      5.94%    100.00% # Bytes accessed per row activation
system.mem_ctrl.bytesPerActivate::total           859                       # Bytes accessed per row activation
system.mem_ctrl.masterReadBytes::.cpu.inst        54912                       # Per-master bytes read from memory
system.mem_ctrl.masterReadBytes::.cpu.data       107520                       # Per-master bytes read from memory
system.mem_ctrl.masterReadRate::.cpu.inst 5253698.419704698958                       # Per-master bytes read from memory rate (Bytes/sec)
system.mem_ctrl.masterReadRate::.cpu.data 10286961.940680528060                       # Per-master bytes read from memory rate (Bytes/sec)
system.mem_ctrl.masterReadAccesses::.cpu.inst          858                       # Per-master read serviced memory accesses
system.mem_ctrl.masterReadAccesses::.cpu.data         1680                       # Per-master read serviced memory accesses
system.mem_ctrl.masterReadTotalLat::.cpu.inst     46866750                       # Per-master read total memory access latency
system.mem_ctrl.masterReadTotalLat::.cpu.data     71167500                       # Per-master read total memory access latency
system.mem_ctrl.masterReadAvgLat::.cpu.inst     54623.25                       # Per-master read average memory access latency
system.mem_ctrl.masterReadAvgLat::.cpu.data     42361.61                       # Per-master read average memory access latency
system.mem_ctrl.totQLat                      70446750                       # Total ticks spent queuing
system.mem_ctrl.totMemAccLat                118034250                       # Total ticks spent from burst creation until serviced by the DRAM
system.mem_ctrl.totBusLat                    12690000                       # Total ticks spent in databus transfers
system.mem_ctrl.avgQLat                      27756.80                       # Average queueing delay per DRAM burst
system.mem_ctrl.avgBusLat                     5000.00                       # Average bus latency per DRAM burst
system.mem_ctrl.avgMemAccLat                 46506.80                       # Average memory access latency per DRAM burst
system.mem_ctrl.avgRdBW                         15.54                       # Average DRAM read bandwidth in MiByte/s
system.mem_ctrl.avgWrBW                          0.00                       # Average achieved write bandwidth in MiByte/s
system.mem_ctrl.avgRdBWSys                      15.54                       # Average system read bandwidth in MiByte/s
system.mem_ctrl.avgWrBWSys                       0.00                       # Average system write bandwidth in MiByte/s
system.mem_ctrl.peakBW                       12800.00                       # Theoretical peak bandwidth in MiByte/s
system.mem_ctrl.busUtil                          0.12                       # Data bus utilization in percentage
system.mem_ctrl.busUtilRead                      0.12                       # Data bus utilization in percentage for reads
system.mem_ctrl.busUtilWrite                     0.00                       # Data bus utilization in percentage for writes
system.mem_ctrl.avgRdQLen                        1.01                       # Average read queue length when enqueuing
system.mem_ctrl.avgWrQLen                        0.00                       # Average write queue length when enqueuing
system.mem_ctrl.readRowHits                      1670                       # Number of row buffer hits during reads
system.mem_ctrl.writeRowHits                        0                       # Number of row buffer hits during writes
system.mem_ctrl.readRowHitRate                  65.80                       # Row buffer hit rate for reads
system.mem_ctrl.writeRowHitRate                   nan                       # Row buffer hit rate for writes
system.mem_ctrl.avgGap                     4118193.07                       # Average gap between requests
system.mem_ctrl.pageHitRate                     65.80                       # Row buffer hit rate, read and write combined
system.mem_ctrl_0.actEnergy                   4491060                       # Energy for activate commands per rank (pJ)
system.mem_ctrl_0.preEnergy                   2368080                       # Energy for precharge commands per rank (pJ)
system.mem_ctrl_0.readEnergy                 10667160                       # Energy for read commands per rank (pJ)
system.mem_ctrl_0.writeEnergy                       0                       # Energy for write commands per rank (pJ)
system.mem_ctrl_0.refreshEnergy          337437360.000000                       # Energy for refresh commands per rank (pJ)
system.mem_ctrl_0.actBackEnergy              82254990                       # Energy for active background per rank (pJ)
system.mem_ctrl_0.preBackEnergy               9170400                       # Energy for precharge background per rank (pJ)
system.mem_ctrl_0.actPowerDownEnergy       1210668030                       # Energy for active power-down per rank (pJ)
system.mem_ctrl_0.prePowerDownEnergy        547209120                       # Energy for precharge power-down per rank (pJ)
system.mem_ctrl_0.selfRefreshEnergy        1491317700                       # Energy for self refresh per rank (pJ)
system.mem_ctrl_0.totalEnergy              3695583900                       # Total energy per rank (pJ)
system.mem_ctrl_0.averagePower             353.574506                       # Core power per rank (mW)
system.mem_ctrl_0.totalIdleTime           10247941500                       # Total Idle time Per DRAM Rank
system.mem_ctrl_0.memoryStateTime::IDLE       8778500                       # Time in different power states
system.mem_ctrl_0.memoryStateTime::REF      142740000                       # Time in different power states
system.mem_ctrl_0.memoryStateTime::SREF    6167803250                       # Time in different power states
system.mem_ctrl_0.memoryStateTime::PRE_PDN   1424917000                       # Time in different power states
system.mem_ctrl_0.memoryStateTime::ACT       52557250                       # Time in different power states
system.mem_ctrl_0.memoryStateTime::ACT_PDN   2655269500                       # Time in different power states
system.mem_ctrl_1.actEnergy                   1706460                       # Energy for activate commands per rank (pJ)
system.mem_ctrl_1.preEnergy                    891825                       # Energy for precharge commands per rank (pJ)
system.mem_ctrl_1.readEnergy                  7454160                       # Energy for read commands per rank (pJ)
system.mem_ctrl_1.writeEnergy                       0                       # Energy for write commands per rank (pJ)
system.mem_ctrl_1.refreshEnergy          57776160.000000                       # Energy for refresh commands per rank (pJ)
system.mem_ctrl_1.actBackEnergy              22745850                       # Energy for active background per rank (pJ)
system.mem_ctrl_1.preBackEnergy               3261600                       # Energy for precharge background per rank (pJ)
system.mem_ctrl_1.actPowerDownEnergy        210942180                       # Energy for active power-down per rank (pJ)
system.mem_ctrl_1.prePowerDownEnergy         84422880                       # Energy for precharge power-down per rank (pJ)
system.mem_ctrl_1.selfRefreshEnergy        2341744200                       # Energy for self refresh per rank (pJ)
system.mem_ctrl_1.totalEnergy              2731053195                       # Total energy per rank (pJ)
system.mem_ctrl_1.averagePower             261.293157                       # Core power per rank (mW)
system.mem_ctrl_1.totalIdleTime           10393247750                       # Total Idle time Per DRAM Rank
system.mem_ctrl_1.memoryStateTime::IDLE       6136000                       # Time in different power states
system.mem_ctrl_1.memoryStateTime::REF       24440000                       # Time in different power states
system.mem_ctrl_1.memoryStateTime::SREF    9711012500                       # Time in different power states
system.mem_ctrl_1.memoryStateTime::PRE_PDN    219850250                       # Time in different power states
system.mem_ctrl_1.memoryStateTime::ACT       28008000                       # Time in different power states
system.mem_ctrl_1.memoryStateTime::ACT_PDN    462618750                       # Time in different power states
system.pwrStateResidencyTicks::UNDEFINED  10452065500                       # Cumulative time (in ticks) in various power states
system.cpu.branchPred.lookups                 4965567                       # Number of BP lookups
system.cpu.branchPred.condPredicted           4965567                       # Number of conditional branches predicted
system.cpu.branchPred.condIncorrect            242540                       # Number of conditional branches incorrect
system.cpu.branchPred.BTBLookups              4137358                       # Number of BTB lookups
system.cpu.branchPred.BTBHits                       0                       # Number of BTB hits
system.cpu.branchPred.BTBCorrect                    0                       # Number of correct BTB predictions (this stat may not work properly.
system.cpu.branchPred.BTBHitPct              0.000000                       # BTB Hit Percentage
system.cpu.branchPred.usedRAS                  231210                       # Number of times the RAS was used to get a target.
system.cpu.branchPred.RASInCorrect              21106                       # Number of incorrect RAS predictions.
system.cpu.branchPred.indirectLookups         4137358                       # Number of indirect predictor lookups.
system.cpu.branchPred.indirectHits            1840419                       # Number of indirect target hits.
system.cpu.branchPred.indirectMisses          2296939                       # Number of indirect misses.
system.cpu.branchPredindirectMispredicted       119416                       # Number of mispredicted indirect branches.
system.cpu.dtb.walker.pwrStateResidencyTicks::UNDEFINED  10452065500                       # Cumulative time (in ticks) in various power states
system.cpu.dtb.rdAccesses                     7418460                       # TLB accesses on read requests
system.cpu.dtb.wrAccesses                     2690657                       # TLB accesses on write requests
system.cpu.dtb.rdMisses                          3394                       # TLB misses on read requests
system.cpu.dtb.wrMisses                           259                       # TLB misses on write requests
system.cpu.apic_clk_domain.clock                 8000                       # Clock period in ticks
system.cpu.interrupts.pwrStateResidencyTicks::UNDEFINED  10452065500                       # Cumulative time (in ticks) in various power states
system.cpu.itb.walker.pwrStateResidencyTicks::UNDEFINED  10452065500                       # Cumulative time (in ticks) in various power states
system.cpu.itb.rdAccesses                           0                       # TLB accesses on read requests
system.cpu.itb.wrAccesses                     3855121                       # TLB accesses on write requests
system.cpu.itb.rdMisses                             0                       # TLB misses on read requests
system.cpu.itb.wrMisses                           212                       # TLB misses on write requests
system.cpu.workload.numSyscalls                    23                       # Number of system calls
system.cpu.pwrStateResidencyTicks::ON     10452065500                       # Cumulative time (in ticks) in various power states
system.cpu.numCycles                         20904132                       # number of cpu cycles simulated
system.cpu.numWorkItemsStarted                      0                       # number of work items this cpu started
system.cpu.numWorkItemsCompleted                    0                       # number of work items this cpu completed
system.cpu.fetch.icacheStallCycles             252062                       # Number of cycles fetch is stalled on an Icache miss
system.cpu.fetch.Insts                       29655948                       # Number of instructions fetch has processed
system.cpu.fetch.Branches                     4965567                       # Number of branches that fetch encountered
system.cpu.fetch.predictedBranches            2071629                       # Number of branches that fetch has predicted taken
system.cpu.fetch.Cycles                      20364311                       # Number of cycles fetch has run and was not squashing or blocked
system.cpu.fetch.SquashCycles                  494790                       # Number of cycles fetch has spent squashing
system.cpu.fetch.MiscStallCycles                  116                       # Number of cycles fetch has spent waiting on interrupts, or bad addresses, or out of MSHRs
system.cpu.fetch.PendingTrapStallCycles          1468                       # Number of stall cycles due to pending traps
system.cpu.fetch.PendingQuiesceStallCycles           24                       # Number of stall cycles due to pending quiesce instructions
system.cpu.fetch.IcacheWaitRetryStallCycles           66                       # Number of stall cycles due to full MSHR
system.cpu.fetch.CacheLines                   3854967                       # Number of cache lines fetched
system.cpu.fetch.IcacheSquashes                   642                       # Number of outstanding Icache misses that were squashed
system.cpu.fetch.rateDist::samples           20865442                       # Number of instructions fetched each cycle (Total)
system.cpu.fetch.rateDist::mean              2.396004                       # Number of instructions fetched each cycle (Total)
system.cpu.fetch.rateDist::stdev             1.821989                       # Number of instructions fetched each cycle (Total)
system.cpu.fetch.rateDist::underflows               0      0.00%      0.00% # Number of instructions fetched each cycle (Total)
system.cpu.fetch.rateDist::0                  6803293     32.61%     32.61% # Number of instructions fetched each cycle (Total)
system.cpu.fetch.rateDist::1                   910102      4.36%     36.97% # Number of instructions fetched each cycle (Total)
system.cpu.fetch.rateDist::2                  1190145      5.70%     42.67% # Number of instructions fetched each cycle (Total)
system.cpu.fetch.rateDist::3                  1144325      5.48%     48.16% # Number of instructions fetched each cycle (Total)
system.cpu.fetch.rateDist::4                 10817577     51.84%    100.00% # Number of instructions fetched each cycle (Total)
system.cpu.fetch.rateDist::overflows                0      0.00%    100.00% # Number of instructions fetched each cycle (Total)
system.cpu.fetch.rateDist::min_value                0                       # Number of instructions fetched each cycle (Total)
system.cpu.fetch.rateDist::max_value                4                       # Number of instructions fetched each cycle (Total)
system.cpu.fetch.rateDist::total             20865442                       # Number of instructions fetched each cycle (Total)
system.cpu.fetch.branchRate                  0.237540                       # Number of branch fetches per cycle
system.cpu.fetch.rate                        1.418664                       # Number of inst fetches per cycle
system.cpu.decode.IdleCycles                  2845422                       # Number of cycles decode is idle
system.cpu.decode.BlockedCycles               6524424                       # Number of cycles decode is blocked
system.cpu.decode.RunCycles                   8033433                       # Number of cycles decode is running
system.cpu.decode.UnblockCycles               3214768                       # Number of cycles decode is unblocking
system.cpu.decode.SquashCycles                 247395                       # Number of cycles decode is squashing
system.cpu.decode.DecodedInsts               42948204                       # Number of instructions handled by decode
system.cpu.decode.SquashedInsts               1108875                       # Number of squashed instructions handled by decode
system.cpu.rename.SquashCycles                 247395                       # Number of cycles rename is squashing
system.cpu.rename.IdleCycles                  5086607                       # Number of cycles rename is idle
system.cpu.rename.BlockCycles                 1144947                       # Number of cycles rename is blocking
system.cpu.rename.serializeStallCycles           2366                       # count of cycles rename stalled for serializing inst
system.cpu.rename.RunCycles                   8971811                       # Number of cycles rename is running
system.cpu.rename.UnblockCycles               5412316                       # Number of cycles rename is unblocking
system.cpu.rename.RenamedInsts               41661455                       # Number of instructions processed by rename
system.cpu.rename.SquashedInsts                546856                       # Number of squashed instructions processed by rename
system.cpu.rename.ROBFullEvents                  1400                       # Number of times rename has blocked due to ROB full
system.cpu.rename.IQFullEvents                3292422                       # Number of times rename has blocked due to IQ full
system.cpu.rename.LQFullEvents                 640038                       # Number of times rename has blocked due to LQ full
system.cpu.rename.SQFullEvents                 633941                       # Number of times rename has blocked due to SQ full
system.cpu.rename.RenamedOperands            47807503                       # Number of destination operands rename has renamed
system.cpu.rename.RenameLookups             105442254                       # Number of register rename lookups that rename has made
system.cpu.rename.int_rename_lookups         65674722                       # Number of integer rename lookups
system.cpu.rename.fp_rename_lookups             44716                       # Number of floating rename lookups
system.cpu.rename.CommittedMaps              37258541                       # Number of HB maps that are committed
system.cpu.rename.UndoneMaps                 10548962                       # Number of HB maps that are undone due to squashing
system.cpu.rename.serializingInsts                 60                       # count of serializing insts renamed
system.cpu.rename.tempSerializingInsts             55                       # count of temporary serializing insts renamed
system.cpu.rename.skidInsts                   9502283                       # count of insts added to the skid buffer
system.cpu.memDep0.insertedLoads              8535605                       # Number of loads inserted to the mem dependence unit.
system.cpu.memDep0.insertedStores             3150404                       # Number of stores inserted to the mem dependence unit.
system.cpu.memDep0.conflictingLoads           2314871                       # Number of conflicting loads.
system.cpu.memDep0.conflictingStores           650633                       # Number of conflicting stores.
system.cpu.iq.iqInstsAdded                   40609450                       # Number of instructions added to the IQ (excludes non-spec)
system.cpu.iq.iqNonSpecInstsAdded               12213                       # Number of non-speculative instructions added to the IQ
system.cpu.iq.iqInstsIssued                  37060588                       # Number of instructions issued
system.cpu.iq.iqSquashedInstsIssued            408992                       # Number of squashed instructions issued
system.cpu.iq.iqSquashedInstsExamined         8275506                       # Number of squashed instructions iterated over during squash; mainly for profiling
system.cpu.iq.iqSquashedOperandsExamined     11868556                       # Number of squashed operands that are examined and possibly removed from graph
system.cpu.iq.iqSquashedNonSpecRemoved          12190                       # Number of squashed non-spec instructions that were removed
system.cpu.iq.issued_per_cycle::samples      20865442                       # Number of insts issued each cycle
system.cpu.iq.issued_per_cycle::mean         1.776171                       # Number of insts issued each cycle
system.cpu.iq.issued_per_cycle::stdev        1.010298                       # Number of insts issued each cycle
system.cpu.iq.issued_per_cycle::underflows            0      0.00%      0.00% # Number of insts issued each cycle
system.cpu.iq.issued_per_cycle::0             3143051     15.06%     15.06% # Number of insts issued each cycle
system.cpu.iq.issued_per_cycle::1             4018115     19.26%     34.32% # Number of insts issued each cycle
system.cpu.iq.issued_per_cycle::2             8129611     38.96%     73.28% # Number of insts issued each cycle
system.cpu.iq.issued_per_cycle::3             5515409     26.43%     99.72% # Number of insts issued each cycle
system.cpu.iq.issued_per_cycle::4               59256      0.28%    100.00% # Number of insts issued each cycle
system.cpu.iq.issued_per_cycle::overflows            0      0.00%    100.00% # Number of insts issued each cycle
system.cpu.iq.issued_per_cycle::min_value            0                       # Number of insts issued each cycle
system.cpu.iq.issued_per_cycle::max_value            4                       # Number of insts issued each cycle
system.cpu.iq.issued_per_cycle::total        20865442                       # Number of insts issued each cycle
system.cpu.iq.fu_full::No_OpClass                   0      0.00%      0.00% # attempts to use FU when none available
system.cpu.iq.fu_full::IntAlu                 8988150     63.13%     63.13% # attempts to use FU when none available
system.cpu.iq.fu_full::IntMult                      0      0.00%     63.13% # attempts to use FU when none available
system.cpu.iq.fu_full::IntDiv                       0      0.00%     63.13% # attempts to use FU when none available
system.cpu.iq.fu_full::FloatAdd                     0      0.00%     63.13% # attempts to use FU when none available
system.cpu.iq.fu_full::FloatCmp                     0      0.00%     63.13% # attempts to use FU when none available
system.cpu.iq.fu_full::FloatCvt                     0      0.00%     63.13% # attempts to use FU when none available
system.cpu.iq.fu_full::FloatMult                    0      0.00%     63.13% # attempts to use FU when none available
system.cpu.iq.fu_full::FloatMultAcc                 0      0.00%     63.13% # attempts to use FU when none available
system.cpu.iq.fu_full::FloatDiv                     0      0.00%     63.13% # attempts to use FU when none available
system.cpu.iq.fu_full::FloatMisc                    0      0.00%     63.13% # attempts to use FU when none available
system.cpu.iq.fu_full::FloatSqrt                    0      0.00%     63.13% # attempts to use FU when none available
system.cpu.iq.fu_full::SimdAdd                    268      0.00%     63.13% # attempts to use FU when none available
system.cpu.iq.fu_full::SimdAddAcc                   0      0.00%     63.13% # attempts to use FU when none available
system.cpu.iq.fu_full::SimdAlu                    129      0.00%     63.13% # attempts to use FU when none available
system.cpu.iq.fu_full::SimdCmp                      0      0.00%     63.13% # attempts to use FU when none available
system.cpu.iq.fu_full::SimdCvt                     78      0.00%     63.13% # attempts to use FU when none available
system.cpu.iq.fu_full::SimdMisc                   146      0.00%     63.13% # attempts to use FU when none available
system.cpu.iq.fu_full::SimdMult                     0      0.00%     63.13% # attempts to use FU when none available
system.cpu.iq.fu_full::SimdMultAcc                  0      0.00%     63.13% # attempts to use FU when none available
system.cpu.iq.fu_full::SimdShift                  124      0.00%     63.13% # attempts to use FU when none available
system.cpu.iq.fu_full::SimdShiftAcc                 0      0.00%     63.13% # attempts to use FU when none available
system.cpu.iq.fu_full::SimdSqrt                     0      0.00%     63.13% # attempts to use FU when none available
system.cpu.iq.fu_full::SimdFloatAdd                 0      0.00%     63.13% # attempts to use FU when none available
system.cpu.iq.fu_full::SimdFloatAlu                 0      0.00%     63.13% # attempts to use FU when none available
system.cpu.iq.fu_full::SimdFloatCmp                 0      0.00%     63.13% # attempts to use FU when none available
system.cpu.iq.fu_full::SimdFloatCvt                 0      0.00%     63.13% # attempts to use FU when none available
system.cpu.iq.fu_full::SimdFloatDiv                 0      0.00%     63.13% # attempts to use FU when none available
system.cpu.iq.fu_full::SimdFloatMisc                0      0.00%     63.13% # attempts to use FU when none available
system.cpu.iq.fu_full::SimdFloatMult                0      0.00%     63.13% # attempts to use FU when none available
system.cpu.iq.fu_full::SimdFloatMultAcc             0      0.00%     63.13% # attempts to use FU when none available
system.cpu.iq.fu_full::SimdFloatSqrt                0      0.00%     63.13% # attempts to use FU when none available
system.cpu.iq.fu_full::SimdAes                      0      0.00%     63.13% # attempts to use FU when none available
system.cpu.iq.fu_full::SimdAesMix                   0      0.00%     63.13% # attempts to use FU when none available
system.cpu.iq.fu_full::SimdSha1Hash                 0      0.00%     63.13% # attempts to use FU when none available
system.cpu.iq.fu_full::SimdSha1Hash2                0      0.00%     63.13% # attempts to use FU when none available
system.cpu.iq.fu_full::SimdSha256Hash               0      0.00%     63.13% # attempts to use FU when none available
system.cpu.iq.fu_full::SimdSha256Hash2              0      0.00%     63.13% # attempts to use FU when none available
system.cpu.iq.fu_full::SimdShaSigma2                0      0.00%     63.13% # attempts to use FU when none available
system.cpu.iq.fu_full::SimdShaSigma3                0      0.00%     63.13% # attempts to use FU when none available
system.cpu.iq.fu_full::MemRead                4446573     31.23%     94.36% # attempts to use FU when none available
system.cpu.iq.fu_full::MemWrite                802989      5.64%    100.00% # attempts to use FU when none available
system.cpu.iq.fu_full::FloatMemRead                 0      0.00%    100.00% # attempts to use FU when none available
system.cpu.iq.fu_full::FloatMemWrite                0      0.00%    100.00% # attempts to use FU when none available
system.cpu.iq.fu_full::IprAccess                    0      0.00%    100.00% # attempts to use FU when none available
system.cpu.iq.fu_full::InstPrefetch                 0      0.00%    100.00% # attempts to use FU when none available
system.cpu.iq.FU_type_0::No_OpClass             28909      0.08%      0.08% # Type of FU issued
system.cpu.iq.FU_type_0::IntAlu              26662791     71.94%     72.02% # Type of FU issued
system.cpu.iq.FU_type_0::IntMult                59915      0.16%     72.18% # Type of FU issued
system.cpu.iq.FU_type_0::IntDiv                    31      0.00%     72.18% # Type of FU issued
system.cpu.iq.FU_type_0::FloatAdd               10019      0.03%     72.21% # Type of FU issued
system.cpu.iq.FU_type_0::FloatCmp                   0      0.00%     72.21% # Type of FU issued
system.cpu.iq.FU_type_0::FloatCvt                   0      0.00%     72.21% # Type of FU issued
system.cpu.iq.FU_type_0::FloatMult                  0      0.00%     72.21% # Type of FU issued
system.cpu.iq.FU_type_0::FloatMultAcc               0      0.00%     72.21% # Type of FU issued
system.cpu.iq.FU_type_0::FloatDiv                   0      0.00%     72.21% # Type of FU issued
system.cpu.iq.FU_type_0::FloatMisc                  0      0.00%     72.21% # Type of FU issued
system.cpu.iq.FU_type_0::FloatSqrt                  0      0.00%     72.21% # Type of FU issued
system.cpu.iq.FU_type_0::SimdAdd                  377      0.00%     72.21% # Type of FU issued
system.cpu.iq.FU_type_0::SimdAddAcc                 0      0.00%     72.21% # Type of FU issued
system.cpu.iq.FU_type_0::SimdAlu                  176      0.00%     72.21% # Type of FU issued
system.cpu.iq.FU_type_0::SimdCmp                    0      0.00%     72.21% # Type of FU issued
system.cpu.iq.FU_type_0::SimdCvt                  151      0.00%     72.21% # Type of FU issued
system.cpu.iq.FU_type_0::SimdMisc                 259      0.00%     72.21% # Type of FU issued
system.cpu.iq.FU_type_0::SimdMult                   0      0.00%     72.21% # Type of FU issued
system.cpu.iq.FU_type_0::SimdMultAcc                0      0.00%     72.21% # Type of FU issued
system.cpu.iq.FU_type_0::SimdShift                186      0.00%     72.21% # Type of FU issued
system.cpu.iq.FU_type_0::SimdShiftAcc               0      0.00%     72.21% # Type of FU issued
system.cpu.iq.FU_type_0::SimdSqrt                   0      0.00%     72.21% # Type of FU issued
system.cpu.iq.FU_type_0::SimdFloatAdd               0      0.00%     72.21% # Type of FU issued
system.cpu.iq.FU_type_0::SimdFloatAlu               0      0.00%     72.21% # Type of FU issued
system.cpu.iq.FU_type_0::SimdFloatCmp               0      0.00%     72.21% # Type of FU issued
system.cpu.iq.FU_type_0::SimdFloatCvt               0      0.00%     72.21% # Type of FU issued
system.cpu.iq.FU_type_0::SimdFloatDiv               0      0.00%     72.21% # Type of FU issued
system.cpu.iq.FU_type_0::SimdFloatMisc              0      0.00%     72.21% # Type of FU issued
system.cpu.iq.FU_type_0::SimdFloatMult              0      0.00%     72.21% # Type of FU issued
system.cpu.iq.FU_type_0::SimdFloatMultAcc            0      0.00%     72.21% # Type of FU issued
system.cpu.iq.FU_type_0::SimdFloatSqrt              0      0.00%     72.21% # Type of FU issued
system.cpu.iq.FU_type_0::SimdAes                    0      0.00%     72.21% # Type of FU issued
system.cpu.iq.FU_type_0::SimdAesMix                 0      0.00%     72.21% # Type of FU issued
system.cpu.iq.FU_type_0::SimdSha1Hash               0      0.00%     72.21% # Type of FU issued
system.cpu.iq.FU_type_0::SimdSha1Hash2              0      0.00%     72.21% # Type of FU issued
system.cpu.iq.FU_type_0::SimdSha256Hash             0      0.00%     72.21% # Type of FU issued
system.cpu.iq.FU_type_0::SimdSha256Hash2            0      0.00%     72.21% # Type of FU issued
system.cpu.iq.FU_type_0::SimdShaSigma2              0      0.00%     72.21% # Type of FU issued
system.cpu.iq.FU_type_0::SimdShaSigma3              0      0.00%     72.21% # Type of FU issued
system.cpu.iq.FU_type_0::MemRead              7504781     20.25%     92.46% # Type of FU issued
system.cpu.iq.FU_type_0::MemWrite             2712353      7.32%     99.78% # Type of FU issued
system.cpu.iq.FU_type_0::FloatMemRead           40138      0.11%     99.89% # Type of FU issued
system.cpu.iq.FU_type_0::FloatMemWrite          40502      0.11%    100.00% # Type of FU issued
system.cpu.iq.FU_type_0::IprAccess                  0      0.00%    100.00% # Type of FU issued
system.cpu.iq.FU_type_0::InstPrefetch               0      0.00%    100.00% # Type of FU issued
system.cpu.iq.FU_type_0::total               37060588                       # Type of FU issued
system.cpu.iq.rate                           1.772883                       # Inst issue rate
system.cpu.iq.fu_busy_cnt                    14238457                       # FU busy when requested
system.cpu.iq.fu_busy_rate                   0.384194                       # FU busy rate (busy events/executed inst)
system.cpu.iq.int_inst_queue_reads          109448438                       # Number of integer instruction queue reads
system.cpu.iq.int_inst_queue_writes          48809007                       # Number of integer instruction queue writes
system.cpu.iq.int_inst_queue_wakeup_accesses     36076614                       # Number of integer instruction queue wakeup accesses
system.cpu.iq.fp_inst_queue_reads              185629                       # Number of floating instruction queue reads
system.cpu.iq.fp_inst_queue_writes              93065                       # Number of floating instruction queue writes
system.cpu.iq.fp_inst_queue_wakeup_accesses        92225                       # Number of floating instruction queue wakeup accesses
system.cpu.iq.vec_inst_queue_reads                  0                       # Number of vector instruction queue reads
system.cpu.iq.vec_inst_queue_writes                 0                       # Number of vector instruction queue writes
system.cpu.iq.vec_inst_queue_wakeup_accesses            0                       # Number of vector instruction queue wakeup accesses
system.cpu.iq.int_alu_accesses               51176954                       # Number of integer alu accesses
system.cpu.iq.fp_alu_accesses                   93182                       # Number of floating point alu accesses
system.cpu.iq.vec_alu_accesses                      0                       # Number of vector alu accesses
system.cpu.iew.lsq.thread0.forwLoads          1155348                       # Number of loads that had data forwarded from stores
system.cpu.iew.lsq.thread0.invAddrLoads             0                       # Number of loads ignored due to an invalid address
system.cpu.iew.lsq.thread0.squashedLoads      2315709                       # Number of loads squashed
system.cpu.iew.lsq.thread0.ignoredResponses        10963                       # Number of memory responses ignored because the instruction is squashed
system.cpu.iew.lsq.thread0.memOrderViolation         4926                       # Number of memory ordering violations
system.cpu.iew.lsq.thread0.squashedStores       669995                       # Number of stores squashed
system.cpu.iew.lsq.thread0.invAddrSwpfs             0                       # Number of software prefetches ignored due to an invalid address
system.cpu.iew.lsq.thread0.blockedLoads             0                       # Number of blocked loads due to partial load-store forwarding
system.cpu.iew.lsq.thread0.rescheduledLoads            1                       # Number of loads that were rescheduled
system.cpu.iew.lsq.thread0.cacheBlocked            20                       # Number of times an access to memory failed due to the cache being blocked
system.cpu.iew.iewIdleCycles                        0                       # Number of cycles IEW is idle
system.cpu.iew.iewSquashCycles                 247395                       # Number of cycles IEW is squashing
system.cpu.iew.iewBlockCycles                  212163                       # Number of cycles IEW is blocking
system.cpu.iew.iewUnblockCycles                 18098                       # Number of cycles IEW is unblocking
system.cpu.iew.iewDispatchedInsts            40621663                       # Number of instructions dispatched to IQ
system.cpu.iew.iewDispSquashedInsts            237312                       # Number of squashed instructions skipped by dispatch
system.cpu.iew.iewDispLoadInsts               8535605                       # Number of dispatched load instructions
system.cpu.iew.iewDispStoreInsts              3150404                       # Number of dispatched store instructions
system.cpu.iew.iewDispNonSpecInsts               4214                       # Number of dispatched non-speculative instructions
system.cpu.iew.iewIQFullEvents                   7661                       # Number of times the IQ has become full, causing a stall
system.cpu.iew.iewLSQFullEvents                  6724                       # Number of times the LSQ has become full, causing a stall
system.cpu.iew.memOrderViolationEvents           4926                       # Number of memory order violations
system.cpu.iew.predictedTakenIncorrect          78300                       # Number of branches that were predicted taken incorrectly
system.cpu.iew.predictedNotTakenIncorrect       191524                       # Number of branches that were predicted not taken incorrectly
system.cpu.iew.branchMispredicts               269824                       # Number of branch mispredicts detected at execute
system.cpu.iew.iewExecutedInsts              36336579                       # Number of executed instructions
system.cpu.iew.iewExecLoadInsts               7418398                       # Number of load instructions executed
system.cpu.iew.iewExecSquashedInsts            724009                       # Number of squashed instructions skipped in execute
system.cpu.iew.exec_swp                             0                       # number of swp insts executed
system.cpu.iew.exec_nop                             0                       # number of nop insts executed
system.cpu.iew.exec_refs                     10109054                       # number of memory reference insts executed
system.cpu.iew.exec_branches                  3624142                       # Number of branches executed
system.cpu.iew.exec_stores                    2690656                       # Number of stores executed
system.cpu.iew.exec_rate                     1.738249                       # Inst execution rate
system.cpu.iew.wb_sent                       36187449                       # cumulative count of insts sent to commit
system.cpu.iew.wb_count                      36168839                       # cumulative count of insts written-back
system.cpu.iew.wb_producers                  28256248                       # num instructions producing a value
system.cpu.iew.wb_consumers                  40098628                       # num instructions consuming a value
system.cpu.iew.wb_rate                       1.730224                       # insts written-back per cycle
system.cpu.iew.wb_fanout                     0.704669                       # average fanout of values written-back
system.cpu.commit.commitSquashedInsts         7755698                       # The number of squashed insts skipped by commit
system.cpu.commit.commitNonSpecStalls              23                       # The number of times commit has been forced to stall to communicate backwards
system.cpu.commit.branchMispredicts            242619                       # The number of times a branch was mispredicted
system.cpu.commit.committed_per_cycle::samples     20475453                       # Number of insts commited each cycle
system.cpu.commit.committed_per_cycle::mean     1.579753                       # Number of insts commited each cycle
system.cpu.commit.committed_per_cycle::stdev     1.663195                       # Number of insts commited each cycle
system.cpu.commit.committed_per_cycle::underflows            0      0.00%      0.00% # Number of insts commited each cycle
system.cpu.commit.committed_per_cycle::0      8834939     43.15%     43.15% # Number of insts commited each cycle
system.cpu.commit.committed_per_cycle::1      2896445     14.15%     57.29% # Number of insts commited each cycle
system.cpu.commit.committed_per_cycle::2      1811446      8.85%     66.14% # Number of insts commited each cycle
system.cpu.commit.committed_per_cycle::3      1903673      9.30%     75.44% # Number of insts commited each cycle
system.cpu.commit.committed_per_cycle::4      5028950     24.56%    100.00% # Number of insts commited each cycle
system.cpu.commit.committed_per_cycle::overflows            0      0.00%    100.00% # Number of insts commited each cycle
system.cpu.commit.committed_per_cycle::min_value            0                       # Number of insts commited each cycle
system.cpu.commit.committed_per_cycle::max_value            4                       # Number of insts commited each cycle
system.cpu.commit.committed_per_cycle::total     20475453                       # Number of insts commited each cycle
system.cpu.commit.committedInsts             18836239                       # Number of instructions committed
system.cpu.commit.committedOps               32346156                       # Number of ops (including micro ops) committed
system.cpu.commit.swp_count                         0                       # Number of s/w prefetches committed
system.cpu.commit.refs                        8700305                       # Number of memory references committed
system.cpu.commit.loads                       6219896                       # Number of loads committed
system.cpu.commit.membars                           0                       # Number of memory barriers committed
system.cpu.commit.branches                    3419410                       # Number of branches committed
system.cpu.commit.vec_insts                         0                       # Number of committed Vector instructions.
system.cpu.commit.fp_insts                      92099                       # Number of committed floating point instructions.
system.cpu.commit.int_insts                  32294501                       # Number of committed integer instructions.
system.cpu.commit.function_calls               120304                       # Number of function calls committed.
system.cpu.commit.op_class_0::No_OpClass        10140      0.03%      0.03% # Class of committed instruction
system.cpu.commit.op_class_0::IntAlu         23565672     72.85%     72.89% # Class of committed instruction
system.cpu.commit.op_class_0::IntMult           58948      0.18%     73.07% # Class of committed instruction
system.cpu.commit.op_class_0::IntDiv               28      0.00%     73.07% # Class of committed instruction
system.cpu.commit.op_class_0::FloatAdd          10014      0.03%     73.10% # Class of committed instruction
system.cpu.commit.op_class_0::FloatCmp              0      0.00%     73.10% # Class of committed instruction
system.cpu.commit.op_class_0::FloatCvt              0      0.00%     73.10% # Class of committed instruction
system.cpu.commit.op_class_0::FloatMult             0      0.00%     73.10% # Class of committed instruction
system.cpu.commit.op_class_0::FloatMultAcc            0      0.00%     73.10% # Class of committed instruction
system.cpu.commit.op_class_0::FloatDiv              0      0.00%     73.10% # Class of committed instruction
system.cpu.commit.op_class_0::FloatMisc             0      0.00%     73.10% # Class of committed instruction
system.cpu.commit.op_class_0::FloatSqrt             0      0.00%     73.10% # Class of committed instruction
system.cpu.commit.op_class_0::SimdAdd             374      0.00%     73.10% # Class of committed instruction
system.cpu.commit.op_class_0::SimdAddAcc            0      0.00%     73.10% # Class of committed instruction
system.cpu.commit.op_class_0::SimdAlu              94      0.00%     73.10% # Class of committed instruction
system.cpu.commit.op_class_0::SimdCmp               0      0.00%     73.10% # Class of committed instruction
system.cpu.commit.op_class_0::SimdCvt             140      0.00%     73.10% # Class of committed instruction
system.cpu.commit.op_class_0::SimdMisc            255      0.00%     73.10% # Class of committed instruction
system.cpu.commit.op_class_0::SimdMult              0      0.00%     73.10% # Class of committed instruction
system.cpu.commit.op_class_0::SimdMultAcc            0      0.00%     73.10% # Class of committed instruction
system.cpu.commit.op_class_0::SimdShift           186      0.00%     73.10% # Class of committed instruction
system.cpu.commit.op_class_0::SimdShiftAcc            0      0.00%     73.10% # Class of committed instruction
system.cpu.commit.op_class_0::SimdSqrt              0      0.00%     73.10% # Class of committed instruction
system.cpu.commit.op_class_0::SimdFloatAdd            0      0.00%     73.10% # Class of committed instruction
system.cpu.commit.op_class_0::SimdFloatAlu            0      0.00%     73.10% # Class of committed instruction
system.cpu.commit.op_class_0::SimdFloatCmp            0      0.00%     73.10% # Class of committed instruction
system.cpu.commit.op_class_0::SimdFloatCvt            0      0.00%     73.10% # Class of committed instruction
system.cpu.commit.op_class_0::SimdFloatDiv            0      0.00%     73.10% # Class of committed instruction
system.cpu.commit.op_class_0::SimdFloatMisc            0      0.00%     73.10% # Class of committed instruction
system.cpu.commit.op_class_0::SimdFloatMult            0      0.00%     73.10% # Class of committed instruction
system.cpu.commit.op_class_0::SimdFloatMultAcc            0      0.00%     73.10% # Class of committed instruction
system.cpu.commit.op_class_0::SimdFloatSqrt            0      0.00%     73.10% # Class of committed instruction
system.cpu.commit.op_class_0::SimdAes               0      0.00%     73.10% # Class of committed instruction
system.cpu.commit.op_class_0::SimdAesMix            0      0.00%     73.10% # Class of committed instruction
system.cpu.commit.op_class_0::SimdSha1Hash            0      0.00%     73.10% # Class of committed instruction
system.cpu.commit.op_class_0::SimdSha1Hash2            0      0.00%     73.10% # Class of committed instruction
system.cpu.commit.op_class_0::SimdSha256Hash            0      0.00%     73.10% # Class of committed instruction
system.cpu.commit.op_class_0::SimdSha256Hash2            0      0.00%     73.10% # Class of committed instruction
system.cpu.commit.op_class_0::SimdShaSigma2            0      0.00%     73.10% # Class of committed instruction
system.cpu.commit.op_class_0::SimdShaSigma3            0      0.00%     73.10% # Class of committed instruction
system.cpu.commit.op_class_0::MemRead         6179810     19.11%     92.21% # Class of committed instruction
system.cpu.commit.op_class_0::MemWrite        2439984      7.54%     99.75% # Class of committed instruction
system.cpu.commit.op_class_0::FloatMemRead        40086      0.12%     99.88% # Class of committed instruction
system.cpu.commit.op_class_0::FloatMemWrite        40425      0.12%    100.00% # Class of committed instruction
system.cpu.commit.op_class_0::IprAccess             0      0.00%    100.00% # Class of committed instruction
system.cpu.commit.op_class_0::InstPrefetch            0      0.00%    100.00% # Class of committed instruction
system.cpu.commit.op_class_0::total          32346156                       # Class of committed instruction
system.cpu.commit.bw_lim_events               5028950                       # number cycles where commit BW limit reached
system.cpu.rob.rob_reads                     55548357                       # The number of ROB reads
system.cpu.rob.rob_writes                    80593780                       # The number of ROB writes
system.cpu.timesIdled                             435                       # Number of times that the entire CPU went into an idle state and unscheduled itself
system.cpu.idleCycles                           38690                       # Total number of cycles that the CPU has spent unscheduled due to idling
system.cpu.committedInsts                    18836239                       # Number of Instructions Simulated
system.cpu.committedOps                      32346156                       # Number of Ops (including micro ops) Simulated
system.cpu.cpi                               1.109783                       # CPI: Cycles Per Instruction
system.cpu.cpi_total                         1.109783                       # CPI: Total CPI of All Threads
system.cpu.ipc                               0.901077                       # IPC: Instructions Per Cycle
system.cpu.ipc_total                         0.901077                       # IPC: Total IPC of All Threads
system.cpu.int_regfile_reads                 55797209                       # number of integer regfile reads
system.cpu.int_regfile_writes                29790583                       # number of integer regfile writes
system.cpu.fp_regfile_reads                     44187                       # number of floating regfile reads
system.cpu.fp_regfile_writes                    51693                       # number of floating regfile writes
system.cpu.cc_regfile_reads                  16939527                       # number of cc regfile reads
system.cpu.cc_regfile_writes                 11528199                       # number of cc regfile writes
system.cpu.misc_regfile_reads                17739395                       # number of misc regfile reads
system.cpu.dcache.tags.pwrStateResidencyTicks::UNDEFINED  10452065500                       # Cumulative time (in ticks) in various power states
system.cpu.dcache.tags.tagsinuse           502.191619                       # Cycle average of tags in use
system.cpu.dcache.tags.total_refs             8738393                       # Total number of references to valid blocks.
system.cpu.dcache.tags.sampled_refs              6577                       # Sample count of references to valid blocks.
system.cpu.dcache.tags.avg_refs           1328.629010                       # Average number of references to valid blocks.
system.cpu.dcache.tags.warmup_cycle            169500                       # Cycle when the warmup percentage was hit.
system.cpu.dcache.tags.occ_blocks::.cpu.data   502.191619                       # Average occupied blocks per requestor
system.cpu.dcache.tags.occ_percent::.cpu.data     0.980843                       # Average percentage of cache occupancy
system.cpu.dcache.tags.occ_percent::total     0.980843                       # Average percentage of cache occupancy
system.cpu.dcache.tags.occ_task_id_blocks::1024          512                       # Occupied blocks per task id
system.cpu.dcache.tags.age_task_id_blocks_1024::0           87                       # Occupied blocks per task id
system.cpu.dcache.tags.age_task_id_blocks_1024::1          423                       # Occupied blocks per task id
system.cpu.dcache.tags.age_task_id_blocks_1024::2            1                       # Occupied blocks per task id
system.cpu.dcache.tags.age_task_id_blocks_1024::4            1                       # Occupied blocks per task id
system.cpu.dcache.tags.occ_task_id_percent::1024            1                       # Percentage of cache occupancy per task id
system.cpu.dcache.tags.tag_accesses          69927601                       # Number of tag accesses
system.cpu.dcache.tags.data_accesses         69927601                       # Number of data accesses
system.cpu.dcache.pwrStateResidencyTicks::UNDEFINED  10452065500                       # Cumulative time (in ticks) in various power states
system.cpu.dcache.ReadReq_hits::.cpu.data      6254708                       # number of ReadReq hits
system.cpu.dcache.ReadReq_hits::total         6254708                       # number of ReadReq hits
system.cpu.dcache.WriteReq_hits::.cpu.data      2477108                       # number of WriteReq hits
system.cpu.dcache.WriteReq_hits::total        2477108                       # number of WriteReq hits
system.cpu.dcache.demand_hits::.cpu.data      8731816                       # number of demand (read+write) hits
system.cpu.dcache.demand_hits::total          8731816                       # number of demand (read+write) hits
system.cpu.dcache.overall_hits::.cpu.data      8731816                       # number of overall hits
system.cpu.dcache.overall_hits::total         8731816                       # number of overall hits
system.cpu.dcache.ReadReq_misses::.cpu.data         5011                       # number of ReadReq misses
system.cpu.dcache.ReadReq_misses::total          5011                       # number of ReadReq misses
system.cpu.dcache.WriteReq_misses::.cpu.data         3301                       # number of WriteReq misses
system.cpu.dcache.WriteReq_misses::total         3301                       # number of WriteReq misses
system.cpu.dcache.demand_misses::.cpu.data         8312                       # number of demand (read+write) misses
system.cpu.dcache.demand_misses::total           8312                       # number of demand (read+write) misses
system.cpu.dcache.overall_misses::.cpu.data         8312                       # number of overall misses
system.cpu.dcache.overall_misses::total          8312                       # number of overall misses
system.cpu.dcache.ReadReq_miss_latency::.cpu.data     98117000                       # number of ReadReq miss cycles
system.cpu.dcache.ReadReq_miss_latency::total     98117000                       # number of ReadReq miss cycles
system.cpu.dcache.WriteReq_miss_latency::.cpu.data    150613500                       # number of WriteReq miss cycles
system.cpu.dcache.WriteReq_miss_latency::total    150613500                       # number of WriteReq miss cycles
system.cpu.dcache.demand_miss_latency::.cpu.data    248730500                       # number of demand (read+write) miss cycles
system.cpu.dcache.demand_miss_latency::total    248730500                       # number of demand (read+write) miss cycles
system.cpu.dcache.overall_miss_latency::.cpu.data    248730500                       # number of overall miss cycles
system.cpu.dcache.overall_miss_latency::total    248730500                       # number of overall miss cycles
system.cpu.dcache.ReadReq_accesses::.cpu.data      6259719                       # number of ReadReq accesses(hits+misses)
system.cpu.dcache.ReadReq_accesses::total      6259719                       # number of ReadReq accesses(hits+misses)
system.cpu.dcache.WriteReq_accesses::.cpu.data      2480409                       # number of WriteReq accesses(hits+misses)
system.cpu.dcache.WriteReq_accesses::total      2480409                       # number of WriteReq accesses(hits+misses)
system.cpu.dcache.demand_accesses::.cpu.data      8740128                       # number of demand (read+write) accesses
system.cpu.dcache.demand_accesses::total      8740128                       # number of demand (read+write) accesses
system.cpu.dcache.overall_accesses::.cpu.data      8740128                       # number of overall (read+write) accesses
system.cpu.dcache.overall_accesses::total      8740128                       # number of overall (read+write) accesses
system.cpu.dcache.ReadReq_miss_rate::.cpu.data     0.000801                       # miss rate for ReadReq accesses
system.cpu.dcache.ReadReq_miss_rate::total     0.000801                       # miss rate for ReadReq accesses
system.cpu.dcache.WriteReq_miss_rate::.cpu.data     0.001331                       # miss rate for WriteReq accesses
system.cpu.dcache.WriteReq_miss_rate::total     0.001331                       # miss rate for WriteReq accesses
system.cpu.dcache.demand_miss_rate::.cpu.data     0.000951                       # miss rate for demand accesses
system.cpu.dcache.demand_miss_rate::total     0.000951                       # miss rate for demand accesses
system.cpu.dcache.overall_miss_rate::.cpu.data     0.000951                       # miss rate for overall accesses
[...]
system.l3bus.snoop_fanout::min_value                0                       # Request fanout histogram
system.l3bus.snoop_fanout::max_value                0                       # Request fanout histogram
system.l3bus.snoop_fanout::total                 2538                       # Request fanout histogram
system.l3bus.reqLayer0.occupancy              1270000                       # Layer occupancy (ticks)
system.l3bus.reqLayer0.utilization                0.0                       # Layer utilization (%)
system.l3bus.respLayer0.occupancy             6345000                       # Layer occupancy (ticks)
system.l3bus.respLayer0.utilization               0.1                       # Layer utilization (%)
system.l3cache.tags.pwrStateResidencyTicks::UNDEFINED  10452065500                       # Cumulative time (in ticks) in various power states
system.l3cache.tags.tagsinuse             1794.482744                       # Cycle average of tags in use
system.l3cache.tags.total_refs                   2538                       # Total number of references to valid blocks.
system.l3cache.tags.sampled_refs                 2538                       # Sample count of references to valid blocks.
system.l3cache.tags.avg_refs                        1                       # Average number of references to valid blocks.
system.l3cache.tags.warmup_cycle                76000                       # Cycle when the warmup percentage was hit.
system.l3cache.tags.occ_blocks::.cpu.inst   753.424689                       # Average occupied blocks per requestor
system.l3cache.tags.occ_blocks::.cpu.data  1041.058055                       # Average occupied blocks per requestor
system.l3cache.tags.occ_percent::.cpu.inst     0.022993                       # Average percentage of cache occupancy
system.l3cache.tags.occ_percent::.cpu.data     0.031771                       # Average percentage of cache occupancy
system.l3cache.tags.occ_percent::total       0.054763                       # Average percentage of cache occupancy
system.l3cache.tags.occ_task_id_blocks::1024         2538                       # Occupied blocks per task id
system.l3cache.tags.age_task_id_blocks_1024::0           61                       # Occupied blocks per task id
system.l3cache.tags.age_task_id_blocks_1024::2          316                       # Occupied blocks per task id
system.l3cache.tags.age_task_id_blocks_1024::3         1032                       # Occupied blocks per task id
system.l3cache.tags.age_task_id_blocks_1024::4         1129                       # Occupied blocks per task id
system.l3cache.tags.occ_task_id_percent::1024     0.077454                       # Percentage of cache occupancy per task id
system.l3cache.tags.tag_accesses                43146                       # Number of tag accesses
system.l3cache.tags.data_accesses               43146                       # Number of data accesses
system.l3cache.pwrStateResidencyTicks::UNDEFINED  10452065500                       # Cumulative time (in ticks) in various power states
system.l3cache.ReadExReq_misses::.cpu.data         1395                       # number of ReadExReq misses
system.l3cache.ReadExReq_misses::total           1395                       # number of ReadExReq misses
system.l3cache.ReadSharedReq_misses::.cpu.inst          858                       # number of ReadSharedReq misses
system.l3cache.ReadSharedReq_misses::.cpu.data          285                       # number of ReadSharedReq misses
system.l3cache.ReadSharedReq_misses::total         1143                       # number of ReadSharedReq misses
system.l3cache.demand_misses::.cpu.inst           858                       # number of demand (read+write) misses
system.l3cache.demand_misses::.cpu.data          1680                       # number of demand (read+write) misses
system.l3cache.demand_misses::total              2538                       # number of demand (read+write) misses
system.l3cache.overall_misses::.cpu.inst          858                       # number of overall misses
system.l3cache.overall_misses::.cpu.data         1680                       # number of overall misses
system.l3cache.overall_misses::total             2538                       # number of overall misses
system.l3cache.ReadExReq_miss_latency::.cpu.data    107768000                       # number of ReadExReq miss cycles
system.l3cache.ReadExReq_miss_latency::total    107768000                       # number of ReadExReq miss cycles
system.l3cache.ReadSharedReq_miss_latency::.cpu.inst     78801500                       # number of ReadSharedReq miss cycles
system.l3cache.ReadSharedReq_miss_latency::.cpu.data     25831000                       # number of ReadSharedReq miss cycles
system.l3cache.ReadSharedReq_miss_latency::total    104632500                       # number of ReadSharedReq miss cycles
system.l3cache.demand_miss_latency::.cpu.inst     78801500                       # number of demand (read+write) miss cycles
system.l3cache.demand_miss_latency::.cpu.data    133599000                       # number of demand (read+write) miss cycles
system.l3cache.demand_miss_latency::total    212400500                       # number of demand (read+write) miss cycles
system.l3cache.overall_miss_latency::.cpu.inst     78801500                       # number of overall miss cycles
system.l3cache.overall_miss_latency::.cpu.data    133599000                       # number of overall miss cycles
system.l3cache.overall_miss_latency::total    212400500                       # number of overall miss cycles
system.l3cache.ReadExReq_accesses::.cpu.data         1395                       # number of ReadExReq accesses(hits+misses)
system.l3cache.ReadExReq_accesses::total         1395                       # number of ReadExReq accesses(hits+misses)
system.l3cache.ReadSharedReq_accesses::.cpu.inst          858                       # number of ReadSharedReq accesses(hits+misses)
system.l3cache.ReadSharedReq_accesses::.cpu.data          285                       # number of ReadSharedReq accesses(hits+misses)
system.l3cache.ReadSharedReq_accesses::total         1143                       # number of ReadSharedReq accesses(hits+misses)
system.l3cache.demand_accesses::.cpu.inst          858                       # number of demand (read+write) accesses
system.l3cache.demand_accesses::.cpu.data         1680                       # number of demand (read+write) accesses
system.l3cache.demand_accesses::total            2538                       # number of demand (read+write) accesses
system.l3cache.overall_accesses::.cpu.inst          858                       # number of overall (read+write) accesses
system.l3cache.overall_accesses::.cpu.data         1680                       # number of overall (read+write) accesses
system.l3cache.overall_accesses::total           2538                       # number of overall (read+write) accesses
system.l3cache.ReadExReq_miss_rate::.cpu.data            1                       # miss rate for ReadExReq accesses
system.l3cache.ReadExReq_miss_rate::total            1                       # miss rate for ReadExReq accesses
system.l3cache.ReadSharedReq_miss_rate::.cpu.inst            1                       # miss rate for ReadSharedReq accesses
system.l3cache.ReadSharedReq_miss_rate::.cpu.data            1                       # miss rate for ReadSharedReq accesses
system.l3cache.ReadSharedReq_miss_rate::total            1                       # miss rate for ReadSharedReq accesses
system.l3cache.demand_miss_rate::.cpu.inst            1                       # miss rate for demand accesses
system.l3cache.demand_miss_rate::.cpu.data            1                       # miss rate for demand accesses
system.l3cache.demand_miss_rate::total              1                       # miss rate for demand accesses
system.l3cache.overall_miss_rate::.cpu.inst            1                       # miss rate for overall accesses
system.l3cache.overall_miss_rate::.cpu.data            1                       # miss rate for overall accesses
system.l3cache.overall_miss_rate::total             1                       # miss rate for overall accesses
system.l3cache.ReadExReq_avg_miss_latency::.cpu.data 77253.046595                       # average ReadExReq miss latency
system.l3cache.ReadExReq_avg_miss_latency::total 77253.046595                       # average ReadExReq miss latency
system.l3cache.ReadSharedReq_avg_miss_latency::.cpu.inst 91843.240093                       # average ReadSharedReq miss latency
system.l3cache.ReadSharedReq_avg_miss_latency::.cpu.data 90635.087719                       # average ReadSharedReq miss latency
system.l3cache.ReadSharedReq_avg_miss_latency::total 91541.994751                       # average ReadSharedReq miss latency
system.l3cache.demand_avg_miss_latency::.cpu.inst 91843.240093                       # average overall miss latency
system.l3cache.demand_avg_miss_latency::.cpu.data 79523.214286                       # average overall miss latency
system.l3cache.demand_avg_miss_latency::total 83688.140268                       # average overall miss latency
system.l3cache.overall_avg_miss_latency::.cpu.inst 91843.240093                       # average overall miss latency
system.l3cache.overall_avg_miss_latency::.cpu.data 79523.214286                       # average overall miss latency
system.l3cache.overall_avg_miss_latency::total 83688.140268                       # average overall miss latency
system.l3cache.blocked_cycles::no_mshrs             0                       # number of cycles access was blocked
system.l3cache.blocked_cycles::no_targets            0                       # number of cycles access was blocked
system.l3cache.blocked::no_mshrs                    0                       # number of cycles access was blocked
system.l3cache.blocked::no_targets                  0                       # number of cycles access was blocked
system.l3cache.avg_blocked_cycles::no_mshrs          nan                       # average number of cycles each access was blocked
system.l3cache.avg_blocked_cycles::no_targets          nan                       # average number of cycles each access was blocked
system.l3cache.ReadExReq_mshr_misses::.cpu.data         1395                       # number of ReadExReq MSHR misses
system.l3cache.ReadExReq_mshr_misses::total         1395                       # number of ReadExReq MSHR misses
system.l3cache.ReadSharedReq_mshr_misses::.cpu.inst          858                       # number of ReadSharedReq MSHR misses
system.l3cache.ReadSharedReq_mshr_misses::.cpu.data          285                       # number of ReadSharedReq MSHR misses
system.l3cache.ReadSharedReq_mshr_misses::total         1143                       # number of ReadSharedReq MSHR misses
system.l3cache.demand_mshr_misses::.cpu.inst          858                       # number of demand (read+write) MSHR misses
system.l3cache.demand_mshr_misses::.cpu.data         1680                       # number of demand (read+write) MSHR misses
system.l3cache.demand_mshr_misses::total         2538                       # number of demand (read+write) MSHR misses
system.l3cache.overall_mshr_misses::.cpu.inst          858                       # number of overall MSHR misses
system.l3cache.overall_mshr_misses::.cpu.data         1680                       # number of overall MSHR misses
system.l3cache.overall_mshr_misses::total         2538                       # number of overall MSHR misses
system.l3cache.ReadExReq_mshr_miss_latency::.cpu.data    104978000                       # number of ReadExReq MSHR miss cycles
system.l3cache.ReadExReq_mshr_miss_latency::total    104978000                       # number of ReadExReq MSHR miss cycles
system.l3cache.ReadSharedReq_mshr_miss_latency::.cpu.inst     77085500                       # number of ReadSharedReq MSHR miss cycles
system.l3cache.ReadSharedReq_mshr_miss_latency::.cpu.data     25261000                       # number of ReadSharedReq MSHR miss cycles
system.l3cache.ReadSharedReq_mshr_miss_latency::total    102346500                       # number of ReadSharedReq MSHR miss cycles
system.l3cache.demand_mshr_miss_latency::.cpu.inst     77085500                       # number of demand (read+write) MSHR miss cycles
system.l3cache.demand_mshr_miss_latency::.cpu.data    130239000                       # number of demand (read+write) MSHR miss cycles
system.l3cache.demand_mshr_miss_latency::total    207324500                       # number of demand (read+write) MSHR miss cycles
system.l3cache.overall_mshr_miss_latency::.cpu.inst     77085500                       # number of overall MSHR miss cycles
system.l3cache.overall_mshr_miss_latency::.cpu.data    130239000                       # number of overall MSHR miss cycles
system.l3cache.overall_mshr_miss_latency::total    207324500                       # number of overall MSHR miss cycles
system.l3cache.ReadExReq_mshr_miss_rate::.cpu.data            1                       # mshr miss rate for ReadExReq accesses
system.l3cache.ReadExReq_mshr_miss_rate::total            1                       # mshr miss rate for ReadExReq accesses
system.l3cache.ReadSharedReq_mshr_miss_rate::.cpu.inst            1                       # mshr miss rate for ReadSharedReq accesses
system.l3cache.ReadSharedReq_mshr_miss_rate::.cpu.data            1                       # mshr miss rate for ReadSharedReq accesses
system.l3cache.ReadSharedReq_mshr_miss_rate::total            1                       # mshr miss rate for ReadSharedReq accesses
system.l3cache.demand_mshr_miss_rate::.cpu.inst            1                       # mshr miss rate for demand accesses
system.l3cache.demand_mshr_miss_rate::.cpu.data            1                       # mshr miss rate for demand accesses
system.l3cache.demand_mshr_miss_rate::total            1                       # mshr miss rate for demand accesses
system.l3cache.overall_mshr_miss_rate::.cpu.inst            1                       # mshr miss rate for overall accesses
system.l3cache.overall_mshr_miss_rate::.cpu.data            1                       # mshr miss rate for overall accesses
system.l3cache.overall_mshr_miss_rate::total            1                       # mshr miss rate for overall accesses
system.l3cache.ReadExReq_avg_mshr_miss_latency::.cpu.data 75253.046595                       # average ReadExReq mshr miss latency
system.l3cache.ReadExReq_avg_mshr_miss_latency::total 75253.046595                       # average ReadExReq mshr miss latency
system.l3cache.ReadSharedReq_avg_mshr_miss_latency::.cpu.inst 89843.240093                       # average ReadSharedReq mshr miss latency
system.l3cache.ReadSharedReq_avg_mshr_miss_latency::.cpu.data 88635.087719                       # average ReadSharedReq mshr miss latency
system.l3cache.ReadSharedReq_avg_mshr_miss_latency::total 89541.994751                       # average ReadSharedReq mshr miss latency
system.l3cache.demand_avg_mshr_miss_latency::.cpu.inst 89843.240093                       # average overall mshr miss latency
system.l3cache.demand_avg_mshr_miss_latency::.cpu.data 77523.214286                       # average overall mshr miss latency
system.l3cache.demand_avg_mshr_miss_latency::total 81688.140268                       # average overall mshr miss latency
system.l3cache.overall_avg_mshr_miss_latency::.cpu.inst 89843.240093                       # average overall mshr miss latency
system.l3cache.overall_avg_mshr_miss_latency::.cpu.data 77523.214286                       # average overall mshr miss latency
system.l3cache.overall_avg_mshr_miss_latency::total 81688.140268                       # average overall mshr miss latency
system.l3cache.replacements                         0                       # number of replacements
system.membus.snoop_filter.tot_requests          2538                       # Total number of requests made to the snoop filter.
system.membus.snoop_filter.hit_single_requests            0                       # Number of requests hitting in the snoop filter with a single holder of the requested data.
system.membus.snoop_filter.hit_multi_requests            0                       # Number of requests hitting in the snoop filter with multiple (>1) holders of the requested data.
system.membus.snoop_filter.tot_snoops               0                       # Total number of snoops made to the snoop filter.
system.membus.snoop_filter.hit_single_snoops            0                       # Number of snoops hitting in the snoop filter with a single holder of the requested data.
system.membus.snoop_filter.hit_multi_snoops            0                       # Number of snoops hitting in the snoop filter with multiple (>1) holders of the requested data.
system.membus.pwrStateResidencyTicks::UNDEFINED  10452065500                       # Cumulative time (in ticks) in various power states
system.membus.trans_dist::ReadResp               1143                       # Transaction distribution
system.membus.trans_dist::ReadExReq              1395                       # Transaction distribution
system.membus.trans_dist::ReadExResp             1395                       # Transaction distribution
system.membus.trans_dist::ReadSharedReq          1143                       # Transaction distribution
system.membus.pkt_count_system.l3cache.mem_side::system.mem_ctrl.port         5076                       # Packet count per connected master and slave (bytes)
system.membus.pkt_count_system.l3cache.mem_side::total         5076                       # Packet count per connected master and slave (bytes)
system.membus.pkt_count::total                   5076                       # Packet count per connected master and slave (bytes)
system.membus.pkt_size_system.l3cache.mem_side::system.mem_ctrl.port       162432                       # Cumulative packet size per connected master and slave (bytes)
system.membus.pkt_size_system.l3cache.mem_side::total       162432                       # Cumulative packet size per connected master and slave (bytes)
system.membus.pkt_size::total                  162432                       # Cumulative packet size per connected master and slave (bytes)
system.membus.snoops                                0                       # Total snoops (count)
system.membus.snoopTraffic                          0                       # Total snoop traffic (bytes)
system.membus.snoop_fanout::samples              2538                       # Request fanout histogram
system.membus.snoop_fanout::mean                    0                       # Request fanout histogram
system.membus.snoop_fanout::stdev                   0                       # Request fanout histogram
system.membus.snoop_fanout::underflows              0      0.00%      0.00% # Request fanout histogram
system.membus.snoop_fanout::0                    2538    100.00%    100.00% # Request fanout histogram
system.membus.snoop_fanout::1                       0      0.00%    100.00% # Request fanout histogram
system.membus.snoop_fanout::overflows               0      0.00%    100.00% # Request fanout histogram
system.membus.snoop_fanout::min_value               0                       # Request fanout histogram
system.membus.snoop_fanout::max_value               0                       # Request fanout histogram
system.membus.snoop_fanout::total                2538                       # Request fanout histogram
system.membus.reqLayer0.occupancy             1269000                       # Layer occupancy (ticks)
system.membus.reqLayer0.utilization               0.0                       # Layer utilization (%)
system.membus.respLayer0.occupancy            6805250                       # Layer occupancy (ticks)
system.membus.respLayer0.utilization              0.1                       # Layer utilization (%)

---------- End Simulation Statistics   ----------