
---------- Begin Simulation Statistics ----------
sim_seconds                                  0.009590                       # Number of seconds simulated
sim_ticks                                  9590469500                       # Number of ticks simulated
final_tick                                 9590469500                       # Number of ticks from beginning of simulation (restored from checkpoints and never reset)
sim_freq                                 1000000000000                       # Frequency of simulated ticks
host_inst_rate                                 272346                       # Simulator instruction rate (inst/s)
host_op_rate                                   467681                       # Simulator op (including micro ops) rate (op/s)
host_tick_rate                              138665152                       # Simulator tick rate (ticks/s)
host_mem_usage                                 660400                       # Number of bytes of host memory used
host_seconds                                    69.16                       # Real time elapsed on the host
sim_insts                                    18836239                       # Number of instructions simulated
sim_ops                                      32346156                       # Number of ops (including micro ops) simulated
system.clk_domain.voltage_domain.voltage            1                       # Voltage in Volts
system.clk_domain.clock                           500                       # Clock period in ticks
system.mem_ctrl.pwrStateResidencyTicks::UNDEFINED   9590469500                       # Cumulative time (in ticks) in various power states
system.mem_ctrl.bytes_read::.cpu.inst           54656                       # Number of bytes read from this memory
system.mem_ctrl.bytes_read::.cpu.data          107456                       # Number of bytes read from this memory
system.mem_ctrl.bytes_read::total              162112                       # Number of bytes read from this memory
system.mem_ctrl.bytes_inst_read::.cpu.inst        54656                       # Number of instructions bytes read from this memory
system.mem_ctrl.bytes_inst_read::total          54656                       # Number of instructions bytes read from this memory
system.mem_ctrl.num_reads::.cpu.inst              854                       # Number of read requests responded to by this memory
system.mem_ctrl.num_reads::.cpu.data             1679                       # Number of read requests responded to by this memory
system.mem_ctrl.num_reads::total                 2533                       # Number of read requests responded to by this memory
system.mem_ctrl.bw_read::.cpu.inst            5698991                       # Total read bandwidth from this memory (bytes/s)
system.mem_ctrl.bw_read::.cpu.data           11204457                       # Total read bandwidth from this memory (bytes/s)
system.mem_ctrl.bw_read::total               16903448                       # Total read bandwidth from this memory (bytes/s)
system.mem_ctrl.bw_inst_read::.cpu.inst       5698991                       # Instruction read bandwidth from this memory (bytes/s)
system.mem_ctrl.bw_inst_read::total           5698991                       # Instruction read bandwidth from this memory (bytes/s)
system.mem_ctrl.bw_total::.cpu.inst           5698991                       # Total bandwidth to/from this memory (bytes/s)
system.mem_ctrl.bw_total::.cpu.data          11204457                       # Total bandwidth to/from this memory (bytes/s)
system.mem_ctrl.bw_total::total              16903448                       # Total bandwidth to/from this memory (bytes/s)
system.mem_ctrl.avgPriority_.cpu.inst::samples       854.00                       # Average QoS priority value for accepted requests
system.mem_ctrl.avgPriority_.cpu.data::samples      1679.00                       # Average QoS priority value for accepted requests
system.mem_ctrl.priorityMinLatency       0.000000018750                       # per QoS priority minimum request to response latency (s)
system.mem_ctrl.priorityMaxLatency       0.000001107250                       # per QoS priority maximum request to response latency (s)
system.mem_ctrl.numReadWriteTurnArounds             0                       # Number of turnarounds from READ to WRITE
system.mem_ctrl.numWriteReadTurnArounds             0                       # Number of turnarounds from WRITE to READ
system.mem_ctrl.numStayReadState                 5582                       # Number of times bus staying in READ state
system.mem_ctrl.numStayWriteState                   0                       # Number of times bus staying in WRITE state
system.mem_ctrl.readReqs                         2533                       # Number of read requests accepted
system.mem_ctrl.writeReqs                           0                       # Number of write requests accepted
system.mem_ctrl.readBursts                       2533                       # Number of DRAM read bursts, including those serviced by the write queue
system.mem_ctrl.writeBursts                         0                       # Number of DRAM write bursts, including those merged in the write queue
system.mem_ctrl.bytesReadDRAM                  162112                       # Total number of bytes read from DRAM
system.mem_ctrl.bytesReadWrQ                        0                       # Total number of bytes read from write queue
system.mem_ctrl.bytesWritten                        0                       # Total number of bytes written to DRAM
system.mem_ctrl.bytesReadSys                   162112                       # Total read bytes from the system interface side
system.mem_ctrl.bytesWrittenSys                     0                       # Total written bytes from the system interface side
system.mem_ctrl.servicedByWrQ                       0                       # Number of DRAM read bursts serviced by the write queue
system.mem_ctrl.mergedWrBursts                      0                       # Number of DRAM write bursts merged with an existing one
system.mem_ctrl.neitherReadNorWriteReqs             0                       # Number of requests that are neither read nor write
system.mem_ctrl.perBankRdBursts::0                285                       # Per bank write bursts
system.mem_ctrl.perBankRdBursts::1                153                       # Per bank write bursts
system.mem_ctrl.perBankRdBursts::2                172                       # Per bank write bursts
system.mem_ctrl.perBankRdBursts::3                146                       # Per bank write bursts
system.mem_ctrl.perBankRdBursts::4                159                       # Per bank write bursts
system.mem_ctrl.perBankRdBursts::5                142                       # Per bank write bursts
system.mem_ctrl.perBankRdBursts::6                205                       # Per bank write bursts
system.mem_ctrl.perBankRdBursts::7                226                       # Per bank write bursts
system.mem_ctrl.perBankRdBursts::8                169                       # Per bank write bursts
system.mem_ctrl.perBankRdBursts::9                185                       # Per bank write bursts
system.mem_ctrl.perBankRdBursts::10               162                       # Per bank write bursts
system.mem_ctrl.perBankRdBursts::11               105                       # Per bank write bursts
system.mem_ctrl.perBankRdBursts::12                70                       # Per bank write bursts
system.mem_ctrl.perBankRdBursts::13                76                       # Per bank write bursts
system.mem_ctrl.perBankRdBursts::14               128                       # Per bank write bursts
system.mem_ctrl.perBankRdBursts::15               150                       # Per bank write bursts
system.mem_ctrl.perBankWrBursts::0                  0                       # Per bank write bursts
system.mem_ctrl.perBankWrBursts::1                  0                       # Per bank write bursts
system.mem_ctrl.perBankWrBursts::2                  0                       # Per bank write bursts
system.mem_ctrl.perBankWrBursts::3                  0                       # Per bank write bursts
system.mem_ctrl.perBankWrBursts::4                  0                       # Per bank write bursts
system.mem_ctrl.perBankWrBursts::5                  0                       # Per bank write bursts
system.mem_ctrl.perBankWrBursts::6                  0                       # Per bank write bursts
system.mem_ctrl.perBankWrBursts::7                  0                       # Per bank write bursts
system.mem_ctrl.perBankWrBursts::8                  0                       # Per bank write bursts
system.mem_ctrl.perBankWrBursts::9                  0                       # Per bank write bursts
system.mem_ctrl.perBankWrBursts::10                 0                       # Per bank write bursts
system.mem_ctrl.perBankWrBursts::11                 0                       # Per bank write bursts
system.mem_ctrl.perBankWrBursts::12                 0                       # Per bank write bursts
system.mem_ctrl.perBankWrBursts::13                 0                       # Per bank write bursts
system.mem_ctrl.perBankWrBursts::14                 0                       # Per bank write bursts
system.mem_ctrl.perBankWrBursts::15                 0                       # Per bank write bursts
system.mem_ctrl.numRdRetry                          0                       # Number of times read queue was full causing retry
system.mem_ctrl.numWrRetry                          0                       # Number of times write queue was full causing retry
system.mem_ctrl.totGap                     9590343000                       # Total gap between requests
system.mem_ctrl.readPktSize::0                      0                       # Read request sizes (log2)
system.mem_ctrl.readPktSize::1                      0                       # Read request sizes (log2)
system.mem_ctrl.readPktSize::2                      0                       # Read request sizes (log2)
system.mem_ctrl.readPktSize::3                      0                       # Read request sizes (log2)
system.mem_ctrl.readPktSize::4                      0                       # Read request sizes (log2)
system.mem_ctrl.readPktSize::5                      0                       # Read request sizes (log2)
system.mem_ctrl.readPktSize::6                   2533                       # Read request sizes (log2)
system.mem_ctrl.writePktSize::0                     0                       # Write request sizes (log2)
system.mem_ctrl.writePktSize::1                     0                       # Write request sizes (log2)
system.mem_ctrl.writePktSize::2                     0                       # Write request sizes (log2)
system.mem_ctrl.writePktSize::3                     0                       # Write request sizes (log2)
system.mem_ctrl.writePktSize::4                     0                       # Write request sizes (log2)
system.mem_ctrl.writePktSize::5                     0                       # Write request sizes (log2)
system.mem_ctrl.writePktSize::6                     0                       # Write request sizes (log2)
system.mem_ctrl.rdQLenPdf::0                     2101                       # What read queue length does an incoming req see
system.mem_ctrl.rdQLenPdf::1                      332                       # What read queue length does an incoming req see
system.mem_ctrl.rdQLenPdf::2                       84                       # What read queue length does an incoming req see
system.mem_ctrl.rdQLenPdf::3                       14                       # What read queue length does an incoming req see
system.mem_ctrl.rdQLenPdf::4                        2                       # What read queue length does an incoming req see
system.mem_ctrl.rdQLenPdf::5                        0                       # What read queue length does an incoming req see
system.mem_ctrl.rdQLenPdf::6                        0                       # What read queue length does an incoming req see
system.mem_ctrl.rdQLenPdf::7                        0                       # What read queue length does an incoming req see
system.mem_ctrl.rdQLenPdf::8                        0                       # What read queue length does an incoming req see
system.mem_ctrl.rdQLenPdf::9                        0                       # What read queue length does an incoming req see
system.mem_ctrl.rdQLenPdf::10                       0                       # What read queue length does an incoming req see
system.mem_ctrl.rdQLenPdf::11                       0                       # What read queue length does an incoming req see
system.mem_ctrl.rdQLenPdf::12                       0                       # What read queue length does an incoming req see
system.mem_ctrl.rdQLenPdf::13                       0                       # What read queue length does an incoming req see
system.mem_ctrl.rdQLenPdf::14                       0                       # What read queue length does an incoming req see
system.mem_ctrl.rdQLenPdf::15                       0                       # What read queue length does an incoming req see
system.mem_ctrl.rdQLenPdf::16                       0                       # What read queue length does an incoming req see
system.mem_ctrl.rdQLenPdf::17                       0                       # What read queue length does an incoming req see
system.mem_ctrl.rdQLenPdf::18                       0                       # What read queue length does an incoming req see
system.mem_ctrl.rdQLenPdf::19                       0                       # What read queue length does an incoming req see
system.mem_ctrl.rdQLenPdf::20                       0                       # What read queue length does an incoming req see
system.mem_ctrl.rdQLenPdf::21                       0                       # What read queue length does an incoming req see
system.mem_ctrl.rdQLenPdf::22                       0                       # What read queue length does an incoming req see
system.mem_ctrl.rdQLenPdf::23                       0                       # What read queue length does an incoming req see
system.mem_ctrl.rdQLenPdf::24                       0                       # What read queue length does an incoming req see
system.mem_ctrl.rdQLenPdf::25                       0                       # What read queue length does an incoming req see
system.mem_ctrl.rdQLenPdf::26                       0                       # What read queue length does an incoming req see
system.mem_ctrl.rdQLenPdf::27                       0                       # What read queue length does an incoming req see
system.mem_ctrl.rdQLenPdf::28                       0                       # What read queue length does an incoming req see
system.mem_ctrl.rdQLenPdf::29                       0                       # What read queue length does an incoming req see
system.mem_ctrl.rdQLenPdf::30                       0                       # What read queue length does an incoming req see
system.mem_ctrl.rdQLenPdf::31                       0                       # What read queue length does an incoming req see
system.mem_ctrl.wrQLenPdf::0                        0                       # What write queue length does an incoming req see
system.mem_ctrl.wrQLenPdf::1                        0                       # What write queue length does an incoming req see
system.mem_ctrl.wrQLenPdf::2                        0                       # What write queue length does an incoming req see
system.mem_ctrl.wrQLenPdf::3                        0                       # What write queue length does an incoming req see
system.mem_ctrl.wrQLenPdf::4                        0                       # What write queue length does an incoming req see
system.mem_ctrl.wrQLenPdf::5                        0                       # What write queue length does an incoming req see
system.mem_ctrl.wrQLenPdf::6                        0                       # What write queue length does an incoming req see
system.mem_ctrl.wrQLenPdf::7                        0                       # What write queue length does an incoming req see
system.mem_ctrl.wrQLenPdf::8                        0                       # What write queue length does an incoming req see
system.mem_ctrl.wrQLenPdf::9                        0                       # What write queue length does an incoming req see
system.mem_ctrl.wrQLenPdf::10                       0                       # What write queue length does an incoming req see
system.mem_ctrl.wrQLenPdf::11                       0                       # What write queue length does an incoming req see
system.mem_ctrl.wrQLenPdf::12                       0                       # What write queue length does an incoming req see
system.mem_ctrl.wrQLenPdf::13                       0                       # What write queue length does an incoming req see
system.mem_ctrl.wrQLenPdf::14                       0                       # What write queue length does an incoming req see
system.mem_ctrl.wrQLenPdf::15                       0                       # What write queue length does an incoming req see
system.mem_ctrl.wrQLenPdf::16                       0                       # What write queue length does an incoming req see
system.mem_ctrl.wrQLenPdf::17                       0                       # What write queue length does an incoming req see
system.mem_ctrl.wrQLenPdf::18                       0                       # What write queue length does an incoming req see
system.mem_ctrl.wrQLenPdf::19                       0                       # What write queue length does an incoming req see
system.mem_ctrl.wrQLenPdf::20                       0                       # What write queue length does an incoming req see
system.mem_ctrl.wrQLenPdf::21                       0                       # What write queue length does an incoming req see
system.mem_ctrl.wrQLenPdf::22                       0                       # What write queue length does an incoming req see
system.mem_ctrl.wrQLenPdf::23                       0                       # What write queue length does an incoming req see
system.mem_ctrl.wrQLenPdf::24                       0                       # What write queue length does an incoming req see
system.mem_ctrl.wrQLenPdf::25                       0                       # What write queue length does an incoming req see
system.mem_ctrl.wrQLenPdf::26                       0                       # What write queue length does an incoming req see
system.mem_ctrl.wrQLenPdf::27                       0                       # What write queue length does an incoming req see
system.mem_ctrl.wrQLenPdf::28                       0                       # What write queue length does an incoming req see
system.mem_ctrl.wrQLenPdf::29                       0                       # What write queue length does an incoming req see
system.mem_ctrl.wrQLenPdf::30                       0                       # What write queue length does an incoming req see
system.mem_ctrl.wrQLenPdf::31                       0                       # What write queue length does an incoming req see
system.mem_ctrl.wrQLenPdf::32                       0                       # What write queue length does an incoming req see
system.mem_ctrl.wrQLenPdf::33                       0                       # What write queue length does an incoming req see
system.mem_ctrl.wrQLenPdf::34                       0                       # What write queue length does an incoming req see
system.mem_ctrl.wrQLenPdf::35                       0                       # What write queue length does an incoming req see
system.mem_ctrl.wrQLenPdf::36                       0                       # What write queue length does an incoming req see
system.mem_ctrl.wrQLenPdf::37                       0                       # What write queue length does an incoming req see
system.mem_ctrl.wrQLenPdf::38                       0                       # What write queue length does an incoming req see
system.mem_ctrl.wrQLenPdf::39                       0                       # What write queue length does an incoming req see
system.mem_ctrl.wrQLenPdf::40                       0                       # What write queue length does an incoming req see
system.mem_ctrl.wrQLenPdf::41                       0                       # What write queue length does an incoming req see
system.mem_ctrl.wrQLenPdf::42                       0                       # What write queue length does an incoming req see
system.mem_ctrl.wrQLenPdf::43                       0                       # What write queue length does an incoming req see
system.mem_ctrl.wrQLenPdf::44                       0                       # What write queue length does an incoming req see
system.mem_ctrl.wrQLenPdf::45                       0                       # What write queue length does an incoming req see
system.mem_ctrl.wrQLenPdf::46                       0                       # What write queue length does an incoming req see
system.mem_ctrl.wrQLenPdf::47                       0                       # What write queue length does an incoming req see
system.mem_ctrl.wrQLenPdf::48                       0                       # What write queue length does an incoming req see
system.mem_ctrl.wrQLenPdf::49                       0                       # What write queue length does an incoming req see
system.mem_ctrl.wrQLenPdf::50                       0                       # What write queue length does an incoming req see
system.mem_ctrl.wrQLenPdf::51                       0                       # What write queue length does an incoming req see
system.mem_ctrl.wrQLenPdf::52                       0                       # What write queue length does an incoming req see
system.mem_ctrl.wrQLenPdf::53                       0                       # What write queue length does an incoming req see
system.mem_ctrl.wrQLenPdf::54                       0                       # What write queue length does an incoming req see
system.mem_ctrl.wrQLenPdf::55                       0                       # What write queue length does an incoming req see
system.mem_ctrl.wrQLenPdf::56                       0                       # What write queue length does an incoming req see
system.mem_ctrl.wrQLenPdf::57                       0                       # What write queue length does an incoming req see
system.mem_ctrl.wrQLenPdf::58                       0                       # What write queue length does an incoming req see
system.mem_ctrl.wrQLenPdf::59                       0                       # What write queue length does an incoming req see
system.mem_ctrl.wrQLenPdf::60                       0                       # What write queue length does an incoming req see
system.mem_ctrl.wrQLenPdf::61                       0                       # What write queue length does an incoming req see
system.mem_ctrl.wrQLenPdf::62                       0                       # What write queue length does an incoming req see
system.mem_ctrl.wrQLenPdf::63                       0                       # What write queue length does an incoming req see
system.mem_ctrl.bytesPerActivate::samples          765                       # Bytes accessed per row activation
system.mem_ctrl.bytesPerActivate::mean     209.986928                       # Bytes accessed per row activation
system.mem_ctrl.bytesPerActivate::gmean    136.197846                       # Bytes accessed per row activation
system.mem_ctrl.bytesPerActivate::stdev    257.217786                       # Bytes accessed per row activation
system.mem_ctrl.bytesPerActivate::0-127           286     37.39%     37.39% # Bytes accessed per row activation
system.mem_ctrl.bytesPerActivate::128-255          319     41.70%     79.08% # Bytes accessed per row activation
system.mem_ctrl.bytesPerActivate::256-383           49      6.41%     85.49% # Bytes accessed per row activation
system.mem_ctrl.bytesPerActivate::384-511           30      3.92%     89.41% # Bytes accessed per row activation
system.mem_ctrl.bytesPerActivate::512-639           15      1.96%     91.37% # Bytes accessed per row activation
system.mem_ctrl.bytesPerActivate::640-767            2      0.26%     91.63% # Bytes accessed per row activation
system.mem_ctrl.bytesPerActivate::768-895            9      1.18%     92.81% # Bytes accessed per row activation
system.mem_ctrl.bytesPerActivate::896-1023            4      0.52%     93.33% # Bytes accessed per row activation
system.mem_ctrl.bytesPerActivate::1024-1151           51      6.67%    100.00% # Bytes accessed per row activation
system.mem_ctrl.bytesPerActivate::total           765                       # Bytes accessed per row activation
system.mem_ctrl.masterReadBytes::.cpu.inst        54656                       # Per-master bytes read from memory
system.mem_ctrl.masterReadBytes::.cpu.data       107456                       # Per-master bytes read from memory
system.mem_ctrl.masterReadRate::.cpu.inst 5698991.066078673117                       # Per-master bytes read from memory rate (Bytes/sec)
system.mem_ctrl.masterReadRate::.cpu.data 11204456.674409942701                       # Per-master bytes read from memory rate (Bytes/sec)
system.mem_ctrl.masterReadAccesses::.cpu.inst          854                       # Per-master read serviced memory accesses
system.mem_ctrl.masterReadAccesses::.cpu.data         1679                       # Per-master read serviced memory accesses
system.mem_ctrl.masterReadTotalLat::.cpu.inst     46463500                       # Per-master read total memory access latency
system.mem_ctrl.masterReadTotalLat::.cpu.data     65571750                       # Per-master read total memory access latency
system.mem_ctrl.masterReadAvgLat::.cpu.inst     54406.91                       # Per-master read average memory access latency
system.mem_ctrl.masterReadAvgLat::.cpu.data     39054.05                       # Per-master read average memory access latency
system.mem_ctrl.totQLat                      64541500                       # Total ticks spent queuing
system.mem_ctrl.totMemAccLat                112035250                       # Total ticks spent from burst creation until serviced by the DRAM
system.mem_ctrl.totBusLat                    12665000                       # Total ticks spent in databus transfers
system.mem_ctrl.avgQLat                      25480.26                       # Average queueing delay per DRAM burst
system.mem_ctrl.avgBusLat                     5000.00                       # Average bus latency per DRAM burst
system.mem_ctrl.avgMemAccLat                 44230.26                       # Average memory access latency per DRAM burst
system.mem_ctrl.avgRdBW                         16.90                       # Average DRAM read bandwidth in MiByte/s
system.mem_ctrl.avgWrBW                          0.00                       # Average achieved write bandwidth in MiByte/s
system.mem_ctrl.avgRdBWSys                      16.90                       # Average system read bandwidth in MiByte/s
system.mem_ctrl.avgWrBWSys                       0.00                       # Average system write bandwidth in MiByte/s
system.mem_ctrl.peakBW                       12800.00                       # Theoretical peak bandwidth in MiByte/s
system.mem_ctrl.busUtil                          0.13                       # Data bus utilization in percentage
system.mem_ctrl.busUtilRead                      0.13                       # Data bus utilization in percentage for reads
system.mem_ctrl.busUtilWrite                     0.00                       # Data bus utilization in percentage for writes
system.mem_ctrl.avgRdQLen                        1.09                       # Average read queue length when enqueuing
system.mem_ctrl.avgWrQLen                        0.00                       # Average write queue length when enqueuing
system.mem_ctrl.readRowHits                      1761                       # Number of row buffer hits during reads
system.mem_ctrl.writeRowHits                        0                       # Number of row buffer hits during writes
system.mem_ctrl.readRowHitRate                  69.52                       # Row buffer hit rate for reads
system.mem_ctrl.writeRowHitRate                   nan                       # Row buffer hit rate for writes
system.mem_ctrl.avgGap                     3786159.89                       # Average gap between requests
system.mem_ctrl.pageHitRate                     69.52                       # Row buffer hit rate, read and write combined
system.mem_ctrl_0.actEnergy                   3819900                       # Energy for activate commands per rank (pJ)
system.mem_ctrl_0.preEnergy                   2015145                       # Energy for precharge commands per rank (pJ)
system.mem_ctrl_0.readEnergy                 10624320                       # Energy for read commands per rank (pJ)
system.mem_ctrl_0.writeEnergy                       0                       # Energy for write commands per rank (pJ)
system.mem_ctrl_0.refreshEnergy          275973360.000000                       # Energy for refresh commands per rank (pJ)
system.mem_ctrl_0.actBackEnergy              70376760                       # Energy for active background per rank (pJ)
system.mem_ctrl_0.preBackEnergy               7867680                       # Energy for precharge background per rank (pJ)
system.mem_ctrl_0.actPowerDownEnergy       1067025750                       # Energy for active power-down per rank (pJ)
system.mem_ctrl_0.prePowerDownEnergy        380426400                       # Energy for precharge power-down per rank (pJ)
system.mem_ctrl_0.selfRefreshEnergy        1471440900                       # Energy for self refresh per rank (pJ)
system.mem_ctrl_0.totalEnergy              3289570215                       # Total energy per rank (pJ)
system.mem_ctrl_0.averagePower             343.004085                       # Core power per rank (mW)
system.mem_ctrl_0.totalIdleTime            9414948000                       # Total Idle time Per DRAM Rank
system.mem_ctrl_0.memoryStateTime::IDLE       8190500                       # Time in different power states
system.mem_ctrl_0.memoryStateTime::REF      116740000                       # Time in different power states
system.mem_ctrl_0.memoryStateTime::SREF    6084980750                       # Time in different power states
system.mem_ctrl_0.memoryStateTime::PRE_PDN    990609250                       # Time in different power states
system.mem_ctrl_0.memoryStateTime::ACT       49783250                       # Time in different power states
system.mem_ctrl_0.memoryStateTime::ACT_PDN   2340165750                       # Time in different power states
system.mem_ctrl_1.actEnergy                   1692180                       # Energy for activate commands per rank (pJ)
system.mem_ctrl_1.preEnergy                    888030                       # Energy for precharge commands per rank (pJ)
system.mem_ctrl_1.readEnergy                  7461300                       # Energy for read commands per rank (pJ)
system.mem_ctrl_1.writeEnergy                       0                       # Energy for write commands per rank (pJ)
system.mem_ctrl_1.refreshEnergy          56546880.000000                       # Energy for refresh commands per rank (pJ)
system.mem_ctrl_1.actBackEnergy              22431780                       # Energy for active background per rank (pJ)
system.mem_ctrl_1.preBackEnergy               3423840                       # Energy for precharge background per rank (pJ)
system.mem_ctrl_1.actPowerDownEnergy        205894830                       # Energy for active power-down per rank (pJ)
system.mem_ctrl_1.prePowerDownEnergy         82654080                       # Energy for precharge power-down per rank (pJ)
system.mem_ctrl_1.selfRefreshEnergy        2139339240                       # Energy for self refresh per rank (pJ)
system.mem_ctrl_1.totalEnergy              2520332160                       # Total energy per rank (pJ)
system.mem_ctrl_1.averagePower             262.795493                       # Core power per rank (mW)
system.mem_ctrl_1.totalIdleTime            9532284500                       # Total Idle time Per DRAM Rank
system.mem_ctrl_1.memoryStateTime::IDLE       6400000                       # Time in different power states
system.mem_ctrl_1.memoryStateTime::REF       23920000                       # Time in different power states
system.mem_ctrl_1.memoryStateTime::SREF    8865590000                       # Time in different power states
system.mem_ctrl_1.memoryStateTime::PRE_PDN    215244750                       # Time in different power states
system.mem_ctrl_1.memoryStateTime::ACT       27781750                       # Time in different power states
system.mem_ctrl_1.memoryStateTime::ACT_PDN    451533000                       # Time in different power states
system.pwrStateResidencyTicks::UNDEFINED   9590469500                       # Cumulative time (in ticks) in various power states
system.cpu.branchPred.lookups                 5069189                       # Number of BP lookups
system.cpu.branchPred.condPredicted           5069189                       # Number of conditional branches predicted
system.cpu.branchPred.condIncorrect            261392                       # Number of conditional branches incorrect
system.cpu.branchPred.BTBLookups              4264390                       # Number of BTB lookups
system.cpu.branchPred.BTBHits                       0                       # Number of BTB hits
system.cpu.branchPred.BTBCorrect                    0                       # Number of correct BTB predictions (this stat may not work properly.
system.cpu.branchPred.BTBHitPct              0.000000                       # BTB Hit Percentage
system.cpu.branchPred.usedRAS                  235076                       # Number of times the RAS was used to get a target.
system.cpu.branchPred.RASInCorrect              23921                       # Number of incorrect RAS predictions.
system.cpu.branchPred.indirectLookups         4264390                       # Number of indirect predictor lookups.
system.cpu.branchPred.indirectHits            1859997                       # Number of indirect target hits.
system.cpu.branchPred.indirectMisses          2404393                       # Number of indirect misses.
system.cpu.branchPredindirectMispredicted       136762                       # Number of mispredicted indirect branches.
system.cpu.dtb.walker.pwrStateResidencyTicks::UNDEFINED   9590469500                       # Cumulative time (in ticks) in various power states
system.cpu.dtb.rdAccesses                     7464400                       # TLB accesses on read requests
system.cpu.dtb.wrAccesses                     2719484                       # TLB accesses on write requests
system.cpu.dtb.rdMisses                          3263                       # TLB misses on read requests
system.cpu.dtb.wrMisses                           252                       # TLB misses on write requests
system.cpu.apic_clk_domain.clock                 8000                       # Clock period in ticks
system.cpu.interrupts.pwrStateResidencyTicks::UNDEFINED   9590469500                       # Cumulative time (in ticks) in various power states
system.cpu.itb.walker.pwrStateResidencyTicks::UNDEFINED   9590469500                       # Cumulative time (in ticks) in various power states
system.cpu.itb.rdAccesses                           0                       # TLB accesses on read requests
system.cpu.itb.wrAccesses                     3925880                       # TLB accesses on write requests
system.cpu.itb.rdMisses                             0                       # TLB misses on read requests
system.cpu.itb.wrMisses                           247                       # TLB misses on write requests
system.cpu.workload.numSyscalls                    23                       # Number of system calls
system.cpu.pwrStateResidencyTicks::ON      9590469500                       # Cumulative time (in ticks) in various power states
system.cpu.numCycles                         19180940                       # number of cpu cycles simulated
system.cpu.numWorkItemsStarted                      0                       # number of work items this cpu started
system.cpu.numWorkItemsCompleted                    0                       # number of work items this cpu completed
system.cpu.fetch.icacheStallCycles             272786                       # Number of cycles fetch is stalled on an Icache miss
system.cpu.fetch.Insts                       30243382                       # Number of instructions fetch has processed
system.cpu.fetch.Branches                     5069189                       # Number of branches that fetch encountered
system.cpu.fetch.predictedBranches            2095073                       # Number of branches that fetch has predicted taken
system.cpu.fetch.Cycles                      18604921                       # Number of cycles fetch has run and was not squashing or blocked
system.cpu.fetch.SquashCycles                  524354                       # Number of cycles fetch has spent squashing
system.cpu.fetch.MiscStallCycles                  104                       # Number of cycles fetch has spent waiting on interrupts, or bad addresses, or out of MSHRs
system.cpu.fetch.PendingTrapStallCycles          1726                       # Number of stall cycles due to pending traps
system.cpu.fetch.PendingQuiesceStallCycles           35                       # Number of stall cycles due to pending quiesce instructions
system.cpu.fetch.IcacheWaitRetryStallCycles           68                       # Number of stall cycles due to full MSHR
system.cpu.fetch.CacheLines                   3925691                       # Number of cache lines fetched
system.cpu.fetch.IcacheSquashes                   650                       # Number of outstanding Icache misses that were squashed
system.cpu.fetch.rateDist::samples           19141817                       # Number of instructions fetched each cycle (Total)
system.cpu.fetch.rateDist::mean              2.664914                       # Number of instructions fetched each cycle (Total)
system.cpu.fetch.rateDist::stdev             1.738233                       # Number of instructions fetched each cycle (Total)
system.cpu.fetch.rateDist::underflows               0      0.00%      0.00% # Number of instructions fetched each cycle (Total)
system.cpu.fetch.rateDist::0                  4957712     25.90%     25.90% # Number of instructions fetched each cycle (Total)
system.cpu.fetch.rateDist::1                   738807      3.86%     29.76% # Number of instructions fetched each cycle (Total)
system.cpu.fetch.rateDist::2                  1237093      6.46%     36.22% # Number of instructions fetched each cycle (Total)
system.cpu.fetch.rateDist::3                  1034508      5.40%     41.63% # Number of instructions fetched each cycle (Total)
system.cpu.fetch.rateDist::4                 11173697     58.37%    100.00% # Number of instructions fetched each cycle (Total)
system.cpu.fetch.rateDist::overflows                0      0.00%    100.00% # Number of instructions fetched each cycle (Total)
system.cpu.fetch.rateDist::min_value                0                       # Number of instructions fetched each cycle (Total)
system.cpu.fetch.rateDist::max_value                4                       # Number of instructions fetched each cycle (Total)
system.cpu.fetch.rateDist::total             19141817                       # Number of instructions fetched each cycle (Total)
system.cpu.fetch.branchRate                  0.264283                       # Number of branch fetches per cycle
system.cpu.fetch.rate                        1.576741                       # Number of inst fetches per cycle
system.cpu.decode.IdleCycles                  2205216                       # Number of cycles decode is idle
system.cpu.decode.BlockedCycles               5021377                       # Number of cycles decode is blocked
system.cpu.decode.RunCycles                   9418398                       # Number of cycles decode is running
system.cpu.decode.UnblockCycles               2234649                       # Number of cycles decode is unblocking
system.cpu.decode.SquashCycles                 262177                       # Number of cycles decode is squashing
system.cpu.decode.DecodedInsts               43862861                       # Number of instructions handled by decode
system.cpu.decode.SquashedInsts               1255299                       # Number of squashed instructions handled by decode
system.cpu.rename.SquashCycles                 262177                       # Number of cycles rename is squashing
system.cpu.rename.IdleCycles                  4036059                       # Number of cycles rename is idle
system.cpu.rename.BlockCycles                 1197269                       # Number of cycles rename is blocking
system.cpu.rename.serializeStallCycles           2427                       # count of cycles rename stalled for serializing inst
system.cpu.rename.RunCycles                   9764685                       # Number of cycles rename is running
system.cpu.rename.UnblockCycles               3879200                       # Number of cycles rename is unblocking
system.cpu.rename.RenamedInsts               42378352                       # Number of instructions processed by rename
system.cpu.rename.SquashedInsts                618682                       # Number of squashed instructions processed by rename
system.cpu.rename.ROBFullEvents                   580                       # Number of times rename has blocked due to ROB full
system.cpu.rename.IQFullEvents                1950193                       # Number of times rename has blocked due to IQ full
system.cpu.rename.LQFullEvents                 608099                       # Number of times rename has blocked due to LQ full
system.cpu.rename.SQFullEvents                 655871                       # Number of times rename has blocked due to SQ full
system.cpu.rename.FullRegisterEvents            62452                       # Number of times there has been no free registers
system.cpu.rename.RenamedOperands            48540810                       # Number of destination operands rename has renamed
system.cpu.rename.RenameLookups             107188100                       # Number of register rename lookups that rename has made
system.cpu.rename.int_rename_lookups         66777508                       # Number of integer rename lookups
system.cpu.rename.fp_rename_lookups             44927                       # Number of floating rename lookups
system.cpu.rename.CommittedMaps              37258541                       # Number of HB maps that are committed
system.cpu.rename.UndoneMaps                 11282269                       # Number of HB maps that are undone due to squashing
system.cpu.rename.serializingInsts                 63                       # count of serializing insts renamed
system.cpu.rename.tempSerializingInsts             56                       # count of temporary serializing insts renamed
system.cpu.rename.skidInsts                   6934616                       # count of insts added to the skid buffer
system.cpu.memDep0.insertedLoads              8636802                       # Number of loads inserted to the mem dependence unit.
system.cpu.memDep0.insertedStores             3197736                       # Number of stores inserted to the mem dependence unit.
system.cpu.memDep0.conflictingLoads           2261087                       # Number of conflicting loads.
system.cpu.memDep0.conflictingStores           595083                       # Number of conflicting stores.
system.cpu.iq.iqInstsAdded                   41189806                       # Number of instructions added to the IQ (excludes non-spec)
system.cpu.iq.iqNonSpecInstsAdded               17925                       # Number of non-speculative instructions added to the IQ
system.cpu.iq.iqInstsIssued                  37745767                       # Number of instructions issued
system.cpu.iq.iqSquashedInstsIssued            253662                       # Number of squashed instructions issued
system.cpu.iq.iqSquashedInstsExamined         8861574                       # Number of squashed instructions iterated over during squash; mainly for profiling
system.cpu.iq.iqSquashedOperandsExamined     12372756                       # Number of squashed operands that are examined and possibly removed from graph
system.cpu.iq.iqSquashedNonSpecRemoved          17902                       # Number of squashed non-spec instructions that were removed
system.cpu.iq.issued_per_cycle::samples      19141817                       # Number of insts issued each cycle
system.cpu.iq.issued_per_cycle::mean         1.971901                       # Number of insts issued each cycle
system.cpu.iq.issued_per_cycle::stdev        1.405847                       # Number of insts issued each cycle
system.cpu.iq.issued_per_cycle::underflows            0      0.00%      0.00% # Number of insts issued each cycle
system.cpu.iq.issued_per_cycle::0             3450425     18.03%     18.03% # Number of insts issued each cycle
system.cpu.iq.issued_per_cycle::1             4770314     24.92%     42.95% # Number of insts issued each cycle
system.cpu.iq.issued_per_cycle::2             3858684     20.16%     63.10% # Number of insts issued each cycle
system.cpu.iq.issued_per_cycle::3             2991491     15.63%     78.73% # Number of insts issued each cycle
system.cpu.iq.issued_per_cycle::4             4070903     21.27%    100.00% # Number of insts issued each cycle
system.cpu.iq.issued_per_cycle::overflows            0      0.00%    100.00% # Number of insts issued each cycle
system.cpu.iq.issued_per_cycle::min_value            0                       # Number of insts issued each cycle
system.cpu.iq.issued_per_cycle::max_value            4                       # Number of insts issued each cycle
system.cpu.iq.issued_per_cycle::total        19141817                       # Number of insts issued each cycle
system.cpu.iq.fu_full::No_OpClass                   0      0.00%      0.00% # attempts to use FU when none available
system.cpu.iq.fu_full::IntAlu                       0      0.00%      0.00% # attempts to use FU when none available
system.cpu.iq.fu_full::IntMult                      0      0.00%      0.00% # attempts to use FU when none available
system.cpu.iq.fu_full::IntDiv                       0      0.00%      0.00% # attempts to use FU when none available
system.cpu.iq.fu_full::FloatAdd                     0      0.00%      0.00% # attempts to use FU when none available
system.cpu.iq.fu_full::FloatCmp                     0      0.00%      0.00% # attempts to use FU when none available
system.cpu.iq.fu_full::FloatCvt                     0      0.00%      0.00% # attempts to use FU when none available
system.cpu.iq.fu_full::FloatMult                    0      0.00%      0.00% # attempts to use FU when none available
system.cpu.iq.fu_full::FloatMultAcc                 0      0.00%      0.00% # attempts to use FU when none available
system.cpu.iq.fu_full::FloatDiv                     0      0.00%      0.00% # attempts to use FU when none available
system.cpu.iq.fu_full::FloatMisc                    0      0.00%      0.00% # attempts to use FU when none available
system.cpu.iq.fu_full::FloatSqrt                    0      0.00%      0.00% # attempts to use FU when none available
system.cpu.iq.fu_full::SimdAdd                    268      0.00%      0.00% # attempts to use FU when none available
system.cpu.iq.fu_full::SimdAddAcc                   0      0.00%      0.00% # attempts to use FU when none available
system.cpu.iq.fu_full::SimdAlu                    135      0.00%      0.01% # attempts to use FU when none available
system.cpu.iq.fu_full::SimdCmp                      0      0.00%      0.01% # attempts to use FU when none available
system.cpu.iq.fu_full::SimdCvt                     78      0.00%      0.01% # attempts to use FU when none available
system.cpu.iq.fu_full::SimdMisc                   147      0.00%      0.01% # attempts to use FU when none available
system.cpu.iq.fu_full::SimdMult                     0      0.00%      0.01% # attempts to use FU when none available
system.cpu.iq.fu_full::SimdMultAcc                  0      0.00%      0.01% # attempts to use FU when none available
system.cpu.iq.fu_full::SimdShift                  124      0.00%      0.01% # attempts to use FU when none available
system.cpu.iq.fu_full::SimdShiftAcc                 0      0.00%      0.01% # attempts to use FU when none available
system.cpu.iq.fu_full::SimdSqrt                     0      0.00%      0.01% # attempts to use FU when none available
system.cpu.iq.fu_full::SimdFloatAdd                 0      0.00%      0.01% # attempts to use FU when none available
system.cpu.iq.fu_full::SimdFloatAlu                 0      0.00%      0.01% # attempts to use FU when none available
system.cpu.iq.fu_full::SimdFloatCmp                 0      0.00%      0.01% # attempts to use FU when none available
system.cpu.iq.fu_full::SimdFloatCvt                 0      0.00%      0.01% # attempts to use FU when none available
system.cpu.iq.fu_full::SimdFloatDiv                 0      0.00%      0.01% # attempts to use FU when none available
system.cpu.iq.fu_full::SimdFloatMisc                0      0.00%      0.01% # attempts to use FU when none available
system.cpu.iq.fu_full::SimdFloatMult                0      0.00%      0.01% # attempts to use FU when none available
system.cpu.iq.fu_full::SimdFloatMultAcc             0      0.00%      0.01% # attempts to use FU when none available
system.cpu.iq.fu_full::SimdFloatSqrt                0      0.00%      0.01% # attempts to use FU when none available
system.cpu.iq.fu_full::SimdAes                      0      0.00%      0.01% # attempts to use FU when none available
system.cpu.iq.fu_full::SimdAesMix                   0      0.00%      0.01% # attempts to use FU when none available
system.cpu.iq.fu_full::SimdSha1Hash                 0      0.00%      0.01% # attempts to use FU when none available
system.cpu.iq.fu_full::SimdSha1Hash2                0      0.00%      0.01% # attempts to use FU when none available
system.cpu.iq.fu_full::SimdSha256Hash               0      0.00%      0.01% # attempts to use FU when none available
system.cpu.iq.fu_full::SimdSha256Hash2              0      0.00%      0.01% # attempts to use FU when none available
system.cpu.iq.fu_full::SimdShaSigma2                0      0.00%      0.01% # attempts to use FU when none available
system.cpu.iq.fu_full::SimdShaSigma3                0      0.00%      0.01% # attempts to use FU when none available
system.cpu.iq.fu_full::MemRead                4831074     82.63%     82.64% # attempts to use FU when none available
system.cpu.iq.fu_full::MemWrite               1014876     17.36%    100.00% # attempts to use FU when none available
system.cpu.iq.fu_full::FloatMemRead                 0      0.00%    100.00% # attempts to use FU when none available
system.cpu.iq.fu_full::FloatMemWrite                0      0.00%    100.00% # attempts to use FU when none available
system.cpu.iq.fu_full::IprAccess                    0      0.00%    100.00% # attempts to use FU when none available
system.cpu.iq.fu_full::InstPrefetch                 0      0.00%    100.00% # attempts to use FU when none available
system.cpu.iq.FU_type_0::No_OpClass             27343      0.07%      0.07% # Type of FU issued
system.cpu.iq.FU_type_0::IntAlu              27218007     72.11%     72.18% # Type of FU issued
system.cpu.iq.FU_type_0::IntMult                59928      0.16%     72.34% # Type of FU issued
system.cpu.iq.FU_type_0::IntDiv                    31      0.00%     72.34% # Type of FU issued
system.cpu.iq.FU_type_0::FloatAdd               10018      0.03%     72.37% # Type of FU issued
system.cpu.iq.FU_type_0::FloatCmp                   0      0.00%     72.37% # Type of FU issued
system.cpu.iq.FU_type_0::FloatCvt                   0      0.00%     72.37% # Type of FU issued
system.cpu.iq.FU_type_0::FloatMult                  0      0.00%     72.37% # Type of FU issued
system.cpu.iq.FU_type_0::FloatMultAcc               0      0.00%     72.37% # Type of FU issued
system.cpu.iq.FU_type_0::FloatDiv                   0      0.00%     72.37% # Type of FU issued
system.cpu.iq.FU_type_0::FloatMisc                  0      0.00%     72.37% # Type of FU issued
system.cpu.iq.FU_type_0::FloatSqrt                  0      0.00%     72.37% # Type of FU issued
system.cpu.iq.FU_type_0::SimdAdd                  378      0.00%     72.37% # Type of FU issued
system.cpu.iq.FU_type_0::SimdAddAcc                 0      0.00%     72.37% # Type of FU issued
system.cpu.iq.FU_type_0::SimdAlu                  175      0.00%     72.37% # Type of FU issued
system.cpu.iq.FU_type_0::SimdCmp                    0      0.00%     72.37% # Type of FU issued
system.cpu.iq.FU_type_0::SimdCvt                  151      0.00%     72.37% # Type of FU issued
system.cpu.iq.FU_type_0::SimdMisc                 259      0.00%     72.37% # Type of FU issued
system.cpu.iq.FU_type_0::SimdMult                   0      0.00%     72.37% # Type of FU issued
system.cpu.iq.FU_type_0::SimdMultAcc                0      0.00%     72.37% # Type of FU issued
system.cpu.iq.FU_type_0::SimdShift                186      0.00%     72.37% # Type of FU issued
system.cpu.iq.FU_type_0::SimdShiftAcc               0      0.00%     72.37% # Type of FU issued
system.cpu.iq.FU_type_0::SimdSqrt                   0      0.00%     72.37% # Type of FU issued
system.cpu.iq.FU_type_0::SimdFloatAdd               0      0.00%     72.37% # Type of FU issued
system.cpu.iq.FU_type_0::SimdFloatAlu               0      0.00%     72.37% # Type of FU issued
system.cpu.iq.FU_type_0::SimdFloatCmp               0      0.00%     72.37% # Type of FU issued
system.cpu.iq.FU_type_0::SimdFloatCvt               0      0.00%     72.37% # Type of FU issued
system.cpu.iq.FU_type_0::SimdFloatDiv               0      0.00%     72.37% # Type of FU issued
system.cpu.iq.FU_type_0::SimdFloatMisc              0      0.00%     72.37% # Type of FU issued
system.cpu.iq.FU_type_0::SimdFloatMult              0      0.00%     72.37% # Type of FU issued
system.cpu.iq.FU_type_0::SimdFloatMultAcc            0      0.00%     72.37% # Type of FU issued
system.cpu.iq.FU_type_0::SimdFloatSqrt              0      0.00%     72.37% # Type of FU issued
system.cpu.iq.FU_type_0::SimdAes                    0      0.00%     72.37% # Type of FU issued
system.cpu.iq.FU_type_0::SimdAesMix                 0      0.00%     72.37% # Type of FU issued
system.cpu.iq.FU_type_0::SimdSha1Hash               0      0.00%     72.37% # Type of FU issued
system.cpu.iq.FU_type_0::SimdSha1Hash2              0      0.00%     72.37% # Type of FU issued
system.cpu.iq.FU_type_0::SimdSha256Hash             0      0.00%     72.37% # Type of FU issued
system.cpu.iq.FU_type_0::SimdSha256Hash2            0      0.00%     72.37% # Type of FU issued
system.cpu.iq.FU_type_0::SimdShaSigma2              0      0.00%     72.37% # Type of FU issued
system.cpu.iq.FU_type_0::SimdShaSigma3              0      0.00%     72.37% # Type of FU issued
system.cpu.iq.FU_type_0::MemRead              7593298     20.12%     92.49% # Type of FU issued
system.cpu.iq.FU_type_0::MemWrite             2755306      7.30%     99.79% # Type of FU issued
system.cpu.iq.FU_type_0::FloatMemRead           40142      0.11%     99.89% # Type of FU issued
system.cpu.iq.FU_type_0::FloatMemWrite          40545      0.11%    100.00% # Type of FU issued
system.cpu.iq.FU_type_0::IprAccess                  0      0.00%    100.00% # Type of FU issued
system.cpu.iq.FU_type_0::InstPrefetch               0      0.00%    100.00% # Type of FU issued
system.cpu.iq.FU_type_0::total               37745767                       # Type of FU issued
system.cpu.iq.rate                           1.967879                       # Inst issue rate
system.cpu.iq.fu_busy_cnt                     5846702                       # FU busy when requested
system.cpu.iq.fu_busy_rate                   0.154897                       # FU busy rate (busy events/executed inst)
system.cpu.iq.int_inst_queue_reads          100548062                       # Number of integer instruction queue reads
system.cpu.iq.int_inst_queue_writes          49976677                       # Number of integer instruction queue writes
system.cpu.iq.int_inst_queue_wakeup_accesses     36622580                       # Number of integer instruction queue wakeup accesses
system.cpu.iq.fp_inst_queue_reads              185653                       # Number of floating instruction queue reads
system.cpu.iq.fp_inst_queue_writes              93445                       # Number of floating instruction queue writes
system.cpu.iq.fp_inst_queue_wakeup_accesses        92238                       # Number of floating instruction queue wakeup accesses
system.cpu.iq.vec_inst_queue_reads                  0                       # Number of vector instruction queue reads
system.cpu.iq.vec_inst_queue_writes                 0                       # Number of vector instruction queue writes
system.cpu.iq.vec_inst_queue_wakeup_accesses            0                       # Number of vector instruction queue wakeup accesses
system.cpu.iq.int_alu_accesses               43471985                       # Number of integer alu accesses
system.cpu.iq.fp_alu_accesses                   93141                       # Number of floating point alu accesses
system.cpu.iq.vec_alu_accesses                      0                       # Number of vector alu accesses
system.cpu.iew.lsq.thread0.forwLoads          1216278                       # Number of loads that had data forwarded from stores
system.cpu.iew.lsq.thread0.invAddrLoads             0                       # Number of loads ignored due to an invalid address
system.cpu.iew.lsq.thread0.squashedLoads      2416906                       # Number of loads squashed
system.cpu.iew.lsq.thread0.ignoredResponses        10124                       # Number of memory responses ignored because the instruction is squashed
system.cpu.iew.lsq.thread0.memOrderViolation          818                       # Number of memory ordering violations
system.cpu.iew.lsq.thread0.squashedStores       717327                       # Number of stores squashed
system.cpu.iew.lsq.thread0.invAddrSwpfs             0                       # Number of software prefetches ignored due to an invalid address
system.cpu.iew.lsq.thread0.blockedLoads             0                       # Number of blocked loads due to partial load-store forwarding
system.cpu.iew.lsq.thread0.rescheduledLoads            0                       # Number of loads that were rescheduled
system.cpu.iew.lsq.thread0.cacheBlocked            34                       # Number of times an access to memory failed due to the cache being blocked
system.cpu.iew.iewIdleCycles                        0                       # Number of cycles IEW is idle
system.cpu.iew.iewSquashCycles                 262177                       # Number of cycles IEW is squashing
system.cpu.iew.iewBlockCycles                  222337                       # Number of cycles IEW is blocking
system.cpu.iew.iewUnblockCycles                 26773                       # Number of cycles IEW is unblocking
system.cpu.iew.iewDispatchedInsts            41207731                       # Number of instructions dispatched to IQ
system.cpu.iew.iewDispSquashedInsts            297084                       # Number of squashed instructions skipped by dispatch
system.cpu.iew.iewDispLoadInsts               8636802                       # Number of dispatched load instructions
system.cpu.iew.iewDispStoreInsts              3197736                       # Number of dispatched store instructions
system.cpu.iew.iewDispNonSpecInsts               6085                       # Number of dispatched non-speculative instructions
system.cpu.iew.iewIQFullEvents                   7068                       # Number of times the IQ has become full, causing a stall
system.cpu.iew.iewLSQFullEvents                 11860                       # Number of times the LSQ has become full, causing a stall
system.cpu.iew.memOrderViolationEvents            818                       # Number of memory order violations
system.cpu.iew.predictedTakenIncorrect          85835                       # Number of branches that were predicted taken incorrectly
system.cpu.iew.predictedNotTakenIncorrect       209944                       # Number of branches that were predicted not taken incorrectly
system.cpu.iew.branchMispredicts               295779                       # Number of branch mispredicts detected at execute
system.cpu.iew.iewExecutedInsts              36898191                       # Number of executed instructions
system.cpu.iew.iewExecLoadInsts               7464372                       # Number of load instructions executed
system.cpu.iew.iewExecSquashedInsts            847576                       # Number of squashed instructions skipped in execute
system.cpu.iew.exec_swp                             0                       # number of swp insts executed
system.cpu.iew.exec_nop                             0                       # number of nop insts executed
system.cpu.iew.exec_refs                     10183856                       # number of memory reference insts executed
system.cpu.iew.exec_branches                  3667646                       # Number of branches executed
system.cpu.iew.exec_stores                    2719484                       # Number of stores executed
system.cpu.iew.exec_rate                     1.923690                       # Inst execution rate
system.cpu.iew.wb_sent                       36741765                       # cumulative count of insts sent to commit
system.cpu.iew.wb_count                      36714818                       # cumulative count of insts written-back
system.cpu.iew.wb_producers                  28423552                       # num instructions producing a value
system.cpu.iew.wb_consumers                  40228596                       # num instructions consuming a value
system.cpu.iew.wb_rate                       1.914130                       # insts written-back per cycle
system.cpu.iew.wb_fanout                     0.706551                       # average fanout of values written-back
system.cpu.commit.commitSquashedInsts         8313243                       # The number of squashed insts skipped by commit
system.cpu.commit.commitNonSpecStalls              23                       # The number of times commit has been forced to stall to communicate backwards
system.cpu.commit.branchMispredicts            261481                       # The number of times a branch was mispredicted
system.cpu.commit.committed_per_cycle::samples     18733292                       # Number of insts commited each cycle
system.cpu.commit.committed_per_cycle::mean     1.726667                       # Number of insts commited each cycle
system.cpu.commit.committed_per_cycle::stdev     1.738880                       # Number of insts commited each cycle
system.cpu.commit.committed_per_cycle::underflows            0      0.00%      0.00% # Number of insts commited each cycle
system.cpu.commit.committed_per_cycle::0      7812397     41.70%     41.70% # Number of insts commited each cycle
system.cpu.commit.committed_per_cycle::1      2393800     12.78%     54.48% # Number of insts commited each cycle
system.cpu.commit.committed_per_cycle::2      1379892      7.37%     61.85% # Number of insts commited each cycle
system.cpu.commit.committed_per_cycle::3      1396240      7.45%     69.30% # Number of insts commited each cycle
system.cpu.commit.committed_per_cycle::4      5750963     30.70%    100.00% # Number of insts commited each cycle
system.cpu.commit.committed_per_cycle::overflows            0      0.00%    100.00% # Number of insts commited each cycle
system.cpu.commit.committed_per_cycle::min_value            0                       # Number of insts commited each cycle
system.cpu.commit.committed_per_cycle::max_value            4                       # Number of insts commited each cycle
system.cpu.commit.committed_per_cycle::total     18733292                       # Number of insts commited each cycle
system.cpu.commit.committedInsts             18836239                       # Number of instructions committed
system.cpu.commit.committedOps               32346156                       # Number of ops (including micro ops) committed
system.cpu.commit.swp_count                         0                       # Number of s/w prefetches committed
system.cpu.commit.refs                        8700305                       # Number of memory references committed
system.cpu.commit.loads                       6219896                       # Number of loads committed
system.cpu.commit.membars                           0                       # Number of memory barriers committed
system.cpu.commit.branches                    3419410                       # Number of branches committed
system.cpu.commit.vec_insts                         0                       # Number of committed Vector instructions.
system.cpu.commit.fp_insts                      92099                       # Number of committed floating point instructions.
system.cpu.commit.int_insts                  32294501                       # Number of committed integer instructions.
system.cpu.commit.function_calls               120304                       # Number of function calls committed.
system.cpu.commit.op_class_0::No_OpClass        10140      0.03%      0.03% # Class of committed instruction
system.cpu.commit.op_class_0::IntAlu         23565672     72.85%     72.89% # Class of committed instruction
system.cpu.commit.op_class_0::IntMult           58948      0.18%     73.07% # Class of committed instruction
system.cpu.commit.op_class_0::IntDiv               28      0.00%     73.07% # Class of committed instruction
system.cpu.commit.op_class_0::FloatAdd          10014      0.03%     73.10% # Class of committed instruction
system.cpu.commit.op_class_0::FloatCmp              0      0.00%     73.10% # Class of committed instruction
system.cpu.commit.op_class_0::FloatCvt              0      0.00%     73.10% # Class of committed instruction
system.cpu.commit.op_class_0::FloatMult             0      0.00%     73.10% # Class of committed instruction
system.cpu.commit.op_class_0::FloatMultAcc            0      0.00%     73.10% # Class of committed instruction
system.cpu.commit.op_class_0::FloatDiv              0      0.00%     73.10% # Class of committed instruction
system.cpu.commit.op_class_0::FloatMisc             0      0.00%     73.10% # Class of committed instruction
system.cpu.commit.op_class_0::FloatSqrt             0      0.00%     73.10% # Class of committed instruction
system.cpu.commit.op_class_0::SimdAdd             374      0.00%     73.10% # Class of committed instruction
system.cpu.commit.op_class_0::SimdAddAcc            0      0.00%     73.10% # Class of committed instruction
system.cpu.commit.op_class_0::SimdAlu              94      0.00%     73.10% # Class of committed instruction
system.cpu.commit.op_class_0::SimdCmp               0      0.00%     73.10% # Class of committed instruction
system.cpu.commit.op_class_0::SimdCvt             140      0.00%     73.10% # Class of committed instruction
system.cpu.commit.op_class_0::SimdMisc            255      0.00%     73.10% # Class of committed instruction
system.cpu.commit.op_class_0::SimdMult              0      0.00%     73.10% # Class of committed instruction
system.cpu.commit.op_class_0::SimdMultAcc            0      0.00%     73.10% # Class of committed instruction
system.cpu.commit.op_class_0::SimdShift           186      0.00%     73.10% # Class of committed instruction
system.cpu.commit.op_class_0::SimdShiftAcc            0      0.00%     73.10% # Class of committed instruction
system.cpu.commit.op_class_0::SimdSqrt              0      0.00%     73.10% # Class of committed instruction
system.cpu.commit.op_class_0::SimdFloatAdd            0      0.00%     73.10% # Class of committed instruction
system.cpu.commit.op_class_0::SimdFloatAlu            0      0.00%     73.10% # Class of committed instruction
system.cpu.commit.op_class_0::SimdFloatCmp            0      0.00%     73.10% # Class of committed instruction
system.cpu.commit.op_class_0::SimdFloatCvt            0      0.00%     73.10% # Class of committed instruction
system.cpu.commit.op_class_0::SimdFloatDiv            0      0.00%     73.10% # Class of committed instruction
system.cpu.commit.op_class_0::SimdFloatMisc            0      0.00%     73.10% # Class of committed instruction
system.cpu.commit.op_class_0::SimdFloatMult            0      0.00%     73.10% # Class of committed instruction
system.cpu.commit.op_class_0::SimdFloatMultAcc            0      0.00%     73.10% # Class of committed instruction
system.cpu.commit.op_class_0::SimdFloatSqrt            0      0.00%     73.10% # Class of committed instruction
system.cpu.commit.op_class_0::SimdAes               0      0.00%     73.10% # Class of committed instruction
system.cpu.commit.op_class_0::SimdAesMix            0      0.00%     73.10% # Class of committed instruction
system.cpu.commit.op_class_0::SimdSha1Hash            0      0.00%     73.10% # Class of committed instruction
system.cpu.commit.op_class_0::SimdSha1Hash2            0      0.00%     73.10% # Class of committed instruction
system.cpu.commit.op_class_0::SimdSha256Hash            0      0.00%     73.10% # Class of committed instruction
system.cpu.commit.op_class_0::SimdSha256Hash2            0      0.00%     73.10% # Class of committed instruction
system.cpu.commit.op_class_0::SimdShaSigma2            0      0.00%     73.10% # Class of committed instruction
system.cpu.commit.op_class_0::SimdShaSigma3            0      0.00%     73.10% # Class of committed instruction
system.cpu.commit.op_class_0::MemRead         6179810     19.11%     92.21% # Class of committed instruction
system.cpu.commit.op_class_0::MemWrite        2439984      7.54%     99.75% # Class of committed instruction
system.cpu.commit.op_class_0::FloatMemRead        40086      0.12%     99.88% # Class of committed instruction
system.cpu.commit.op_class_0::FloatMemWrite        40425      0.12%    100.00% # Class of committed instruction
system.cpu.commit.op_class_0::IprAccess             0      0.00%    100.00% # Class of committed instruction
system.cpu.commit.op_class_0::InstPrefetch            0      0.00%    100.00% # Class of committed instruction
system.cpu.commit.op_class_0::total          32346156                       # Class of committed instruction
system.cpu.commit.bw_lim_events               5750963                       # number cycles where commit BW limit reached
system.cpu.rob.rob_reads                     53641728                       # The number of ROB reads
system.cpu.rob.rob_writes                    81727552                       # The number of ROB writes
system.cpu.timesIdled                             438                       # Number of times that the entire CPU went into an idle state and unscheduled itself
system.cpu.idleCycles                           39123                       # Total number of cycles that the CPU has spent unscheduled due to idling
system.cpu.committedInsts                    18836239                       # Number of Instructions Simulated
system.cpu.committedOps                      32346156                       # Number of Ops (including micro ops) Simulated
system.cpu.cpi                               1.018300                       # CPI: Cycles Per Instruction
system.cpu.cpi_total                         1.018300                       # CPI: Total CPI of All Threads
system.cpu.ipc                               0.982029                       # IPC: Instructions Per Cycle
system.cpu.ipc_total                         0.982029                       # IPC: Total IPC of All Threads
system.cpu.int_regfile_reads                 56315746                       # number of integer regfile reads
system.cpu.int_regfile_writes                30265406                       # number of integer regfile writes
system.cpu.fp_regfile_reads                     44210                       # number of floating regfile reads
system.cpu.fp_regfile_writes                    51699                       # number of floating regfile writes
system.cpu.cc_regfile_reads                  17032158                       # number of cc regfile reads
system.cpu.cc_regfile_writes                 11597268                       # number of cc regfile writes
system.cpu.misc_regfile_reads                17999291                       # number of misc regfile reads
system.cpu.dcache.tags.pwrStateResidencyTicks::UNDEFINED   9590469500                       # Cumulative time (in ticks) in various power states
system.cpu.dcache.tags.tagsinuse           503.129849                       # Cycle average of tags in use
system.cpu.dcache.tags.total_refs             8723030                       # Total number of references to valid blocks.
system.cpu.dcache.tags.sampled_refs              6551                       # Sample count of references to valid blocks.
system.cpu.dcache.tags.avg_refs           1331.557014                       # Average number of references to valid blocks.
system.cpu.dcache.tags.warmup_cycle            169500                       # Cycle when the warmup percentage was hit.
system.cpu.dcache.tags.occ_blocks::.cpu.data   503.129849                       # Average occupied blocks per requestor
system.cpu.dcache.tags.occ_percent::.cpu.data     0.982675                       # Average percentage of cache occupancy
system.cpu.dcache.tags.occ_percent::total     0.982675                       # Average percentage of cache occupancy
system.cpu.dcache.tags.occ_task_id_blocks::1024          512                       # Occupied blocks per task id
system.cpu.dcache.tags.age_task_id_blocks_1024::0           82                       # Occupied blocks per task id
system.cpu.dcache.tags.age_task_id_blocks_1024::1          424                       # Occupied blocks per task id
system.cpu.dcache.tags.age_task_id_blocks_1024::2            5                       # Occupied blocks per task id
system.cpu.dcache.tags.age_task_id_blocks_1024::3            1                       # Occupied blocks per task id
system.cpu.dcache.tags.occ_task_id_percent::1024            1                       # Percentage of cache occupancy per task id
system.cpu.dcache.tags.tag_accesses          69808615                       # Number of tag accesses
system.cpu.dcache.tags.data_accesses         69808615                       # Number of data accesses
system.cpu.dcache.pwrStateResidencyTicks::UNDEFINED   9590469500                       # Cumulative time (in ticks) in various power states
system.cpu.dcache.ReadReq_hits::.cpu.data      6239370                       # number of ReadReq hits
system.cpu.dcache.ReadReq_hits::total         6239370                       # number of ReadReq hits
system.cpu.dcache.WriteReq_hits::.cpu.data      2477109                       # number of WriteReq hits
system.cpu.dcache.WriteReq_hits::total        2477109                       # number of WriteReq hits
system.cpu.dcache.demand_hits::.cpu.data      8716479                       # number of demand (read+write) hits
system.cpu.dcache.demand_hits::total          8716479                       # number of demand (read+write) hits
system.cpu.dcache.overall_hits::.cpu.data      8716479                       # number of overall hits
system.cpu.dcache.overall_hits::total         8716479                       # number of overall hits
system.cpu.dcache.ReadReq_misses::.cpu.data         5479                       # number of ReadReq misses
system.cpu.dcache.ReadReq_misses::total          5479                       # number of ReadReq misses
system.cpu.dcache.WriteReq_misses::.cpu.data         3300                       # number of WriteReq misses
system.cpu.dcache.WriteReq_misses::total         3300                       # number of WriteReq misses
system.cpu.dcache.demand_misses::.cpu.data         8779                       # number of demand (read+write) misses
system.cpu.dcache.demand_misses::total           8779                       # number of demand (read+write) misses
system.cpu.dcache.overall_misses::.cpu.data         8779                       # number of overall misses
system.cpu.dcache.overall_misses::total          8779                       # number of overall misses
system.cpu.dcache.ReadReq_miss_latency::.cpu.data     99303000                       # number of ReadReq miss cycles
system.cpu.dcache.ReadReq_miss_latency::total     99303000                       # number of ReadReq miss cycles
system.cpu.dcache.WriteReq_miss_latency::.cpu.data    145649499                       # number of WriteReq miss cycles
system.cpu.dcache.WriteReq_miss_latency::total    145649499                       # number of WriteReq miss cycles
system.cpu.dcache.demand_miss_latency::.cpu.data    244952499                       # number of demand (read+write) miss cycles
system.cpu.dcache.demand_miss_latency::total    244952499                       # number of demand (read+write) miss cycles
system.cpu.dcache.overall_miss_latency::.cpu.data    244952499                       # number of overall miss cycles
system.cpu.dcache.overall_miss_latency::total    244952499                       # number of overall miss cycles
system.cpu.dcache.ReadReq_accesses::.cpu.data      6244849                       # number of ReadReq accesses(hits+misses)
system.cpu.dcache.ReadReq_accesses::total      6244849                       # number of ReadReq accesses(hits+misses)
system.cpu.dcache.WriteReq_accesses::.cpu.data      2480409                       # number of WriteReq accesses(hits+misses)
system.cpu.dcache.WriteReq_accesses::total      2480409                       # number of WriteReq accesses(hits+misses)
system.cpu.dcache.demand_accesses::.cpu.data      8725258                       # number of demand (read+write) accesses
system.cpu.dcache.demand_accesses::total      8725258                       # number of demand (read+write) accesses
system.cpu.dcache.overall_accesses::.cpu.data      8725258                       # number of overall (read+write) accesses
system.cpu.dcache.overall_accesses::total      8725258                       # number of overall (read+write) accesses
system.cpu.dcache.ReadReq_miss_rate::.cpu.data     0.000877                       # miss rate for ReadReq accesses
system.cpu.dcache.ReadReq_miss_rate::total     0.000877                       # miss rate for ReadReq accesses
system.cpu.dcache.WriteReq_miss_rate::.cpu.data     0.001330                       # miss rate for WriteReq accesses
system.cpu.dcache.WriteReq_miss_rate::total     0.001330                       # miss rate for WriteReq accesses
system.cpu.dcache.demand_miss_rate::.cpu.data     0.001006                       # miss rate for demand accesses
system.cpu.dcache.demand_miss_rate::total     0.001006                       # miss rate for demand accesses
[...]
system.l3bus.snoop_fanout::overflows                0      0.00%    100.00% # Request fanout histogram
system.l3bus.snoop_fanout::min_value                0                       # Request fanout histogram
system.l3bus.snoop_fanout::max_value                0                       # Request fanout histogram
system.l3bus.snoop_fanout::total                 2533                       # Request fanout histogram
system.l3bus.reqLayer0.occupancy              1267500                       # Layer occupancy (ticks)
system.l3bus.reqLayer0.utilization                0.0                       # Layer utilization (%)
system.l3bus.respLayer0.occupancy             6332500                       # Layer occupancy (ticks)
system.l3bus.respLayer0.utilization               0.1                       # Layer utilization (%)
system.l3cache.tags.pwrStateResidencyTicks::UNDEFINED   9590469500                       # Cumulative time (in ticks) in various power states
system.l3cache.tags.tagsinuse             1824.065504                       # Cycle average of tags in use
system.l3cache.tags.total_refs                   2533                       # Total number of references to valid blocks.
system.l3cache.tags.sampled_refs                 2533                       # Sample count of references to valid blocks.
system.l3cache.tags.avg_refs                        1                       # Average number of references to valid blocks.
system.l3cache.tags.warmup_cycle                76000                       # Cycle when the warmup percentage was hit.
system.l3cache.tags.occ_blocks::.cpu.inst   755.890261                       # Average occupied blocks per requestor
system.l3cache.tags.occ_blocks::.cpu.data  1068.175242                       # Average occupied blocks per requestor
system.l3cache.tags.occ_percent::.cpu.inst     0.023068                       # Average percentage of cache occupancy
system.l3cache.tags.occ_percent::.cpu.data     0.032598                       # Average percentage of cache occupancy
system.l3cache.tags.occ_percent::total       0.055666                       # Average percentage of cache occupancy
system.l3cache.tags.occ_task_id_blocks::1024         2533                       # Occupied blocks per task id
system.l3cache.tags.age_task_id_blocks_1024::0           52                       # Occupied blocks per task id
system.l3cache.tags.age_task_id_blocks_1024::2          316                       # Occupied blocks per task id
system.l3cache.tags.age_task_id_blocks_1024::3         2165                       # Occupied blocks per task id
system.l3cache.tags.occ_task_id_percent::1024     0.077301                       # Percentage of cache occupancy per task id
system.l3cache.tags.tag_accesses                43061                       # Number of tag accesses
system.l3cache.tags.data_accesses               43061                       # Number of data accesses
system.l3cache.pwrStateResidencyTicks::UNDEFINED   9590469500                       # Cumulative time (in ticks) in various power states
system.l3cache.ReadExReq_misses::.cpu.data         1394                       # number of ReadExReq misses
system.l3cache.ReadExReq_misses::total           1394                       # number of ReadExReq misses
system.l3cache.ReadSharedReq_misses::.cpu.inst          854                       # number of ReadSharedReq misses
system.l3cache.ReadSharedReq_misses::.cpu.data          285                       # number of ReadSharedReq misses
system.l3cache.ReadSharedReq_misses::total         1139                       # number of ReadSharedReq misses
system.l3cache.demand_misses::.cpu.inst           854                       # number of demand (read+write) misses
system.l3cache.demand_misses::.cpu.data          1679                       # number of demand (read+write) misses
system.l3cache.demand_misses::total              2533                       # number of demand (read+write) misses
system.l3cache.overall_misses::.cpu.inst          854                       # number of overall misses
system.l3cache.overall_misses::.cpu.data         1679                       # number of overall misses
system.l3cache.overall_misses::total             2533                       # number of overall misses
system.l3cache.ReadExReq_miss_latency::.cpu.data    102816500                       # number of ReadExReq miss cycles
system.l3cache.ReadExReq_miss_latency::total    102816500                       # number of ReadExReq miss cycles
system.l3cache.ReadSharedReq_miss_latency::.cpu.inst     78248000                       # number of ReadSharedReq miss cycles
system.l3cache.ReadSharedReq_miss_latency::.cpu.data     25171500                       # number of ReadSharedReq miss cycles
system.l3cache.ReadSharedReq_miss_latency::total    103419500                       # number of ReadSharedReq miss cycles
system.l3cache.demand_miss_latency::.cpu.inst     78248000                       # number of demand (read+write) miss cycles
system.l3cache.demand_miss_latency::.cpu.data    127988000                       # number of demand (read+write) miss cycles
system.l3cache.demand_miss_latency::total    206236000                       # number of demand (read+write) miss cycles
system.l3cache.overall_miss_latency::.cpu.inst     78248000                       # number of overall miss cycles
system.l3cache.overall_miss_latency::.cpu.data    127988000                       # number of overall miss cycles
system.l3cache.overall_miss_latency::total    206236000                       # number of overall miss cycles
system.l3cache.ReadExReq_accesses::.cpu.data         1394                       # number of ReadExReq accesses(hits+misses)
system.l3cache.ReadExReq_accesses::total         1394                       # number of ReadExReq accesses(hits+misses)
system.l3cache.ReadSharedReq_accesses::.cpu.inst          854                       # number of ReadSharedReq accesses(hits+misses)
system.l3cache.ReadSharedReq_accesses::.cpu.data          285                       # number of ReadSharedReq accesses(hits+misses)
system.l3cache.ReadSharedReq_accesses::total         1139                       # number of ReadSharedReq accesses(hits+misses)
system.l3cache.demand_accesses::.cpu.inst          854                       # number of demand (read+write) accesses
system.l3cache.demand_accesses::.cpu.data         1679                       # number of demand (read+write) accesses
system.l3cache.demand_accesses::total            2533                       # number of demand (read+write) accesses
system.l3cache.overall_accesses::.cpu.inst          854                       # number of overall (read+write) accesses
system.l3cache.overall_accesses::.cpu.data         1679                       # number of overall (read+write) accesses
system.l3cache.overall_accesses::total           2533                       # number of overall (read+write) accesses
system.l3cache.ReadExReq_miss_rate::.cpu.data            1                       # miss rate for ReadExReq accesses
system.l3cache.ReadExReq_miss_rate::total            1                       # miss rate for ReadExReq accesses
system.l3cache.ReadSharedReq_miss_rate::.cpu.inst            1                       # miss rate for ReadSharedReq accesses
system.l3cache.ReadSharedReq_miss_rate::.cpu.data            1                       # miss rate for ReadSharedReq accesses
system.l3cache.ReadSharedReq_miss_rate::total            1                       # miss rate for ReadSharedReq accesses
system.l3cache.demand_miss_rate::.cpu.inst            1                       # miss rate for demand accesses
system.l3cache.demand_miss_rate::.cpu.data            1                       # miss rate for demand accesses
system.l3cache.demand_miss_rate::total              1                       # miss rate for demand accesses
system.l3cache.overall_miss_rate::.cpu.inst            1                       # miss rate for overall accesses
system.l3cache.overall_miss_rate::.cpu.data            1                       # miss rate for overall accesses
system.l3cache.overall_miss_rate::total             1                       # miss rate for overall accesses
system.l3cache.ReadExReq_avg_miss_latency::.cpu.data 73756.456241                       # average ReadExReq miss latency
system.l3cache.ReadExReq_avg_miss_latency::total 73756.456241                       # average ReadExReq miss latency
system.l3cache.ReadSharedReq_avg_miss_latency::.cpu.inst 91625.292740                       # average ReadSharedReq miss latency
system.l3cache.ReadSharedReq_avg_miss_latency::.cpu.data 88321.052632                       # average ReadSharedReq miss latency
system.l3cache.ReadSharedReq_avg_miss_latency::total 90798.507463                       # average ReadSharedReq miss latency
system.l3cache.demand_avg_miss_latency::.cpu.inst 91625.292740                       # average overall miss latency
system.l3cache.demand_avg_miss_latency::.cpu.data 76228.707564                       # average overall miss latency
system.l3cache.demand_avg_miss_latency::total 81419.660482                       # average overall miss latency
system.l3cache.overall_avg_miss_latency::.cpu.inst 91625.292740                       # average overall miss latency
system.l3cache.overall_avg_miss_latency::.cpu.data 76228.707564                       # average overall miss latency
system.l3cache.overall_avg_miss_latency::total 81419.660482                       # average overall miss latency
system.l3cache.blocked_cycles::no_mshrs             0                       # number of cycles access was blocked
system.l3cache.blocked_cycles::no_targets            0                       # number of cycles access was blocked
system.l3cache.blocked::no_mshrs                    0                       # number of cycles access was blocked
system.l3cache.blocked::no_targets                  0                       # number of cycles access was blocked
system.l3cache.avg_blocked_cycles::no_mshrs          nan                       # average number of cycles each access was blocked
system.l3cache.avg_blocked_cycles::no_targets          nan                       # average number of cycles each access was blocked
system.l3cache.ReadExReq_mshr_misses::.cpu.data         1394                       # number of ReadExReq MSHR misses
system.l3cache.ReadExReq_mshr_misses::total         1394                       # number of ReadExReq MSHR misses
system.l3cache.ReadSharedReq_mshr_misses::.cpu.inst          854                       # number of ReadSharedReq MSHR misses
system.l3cache.ReadSharedReq_mshr_misses::.cpu.data          285                       # number of ReadSharedReq MSHR misses
system.l3cache.ReadSharedReq_mshr_misses::total         1139                       # number of ReadSharedReq MSHR misses
system.l3cache.demand_mshr_misses::.cpu.inst          854                       # number of demand (read+write) MSHR misses
system.l3cache.demand_mshr_misses::.cpu.data         1679                       # number of demand (read+write) MSHR misses
system.l3cache.demand_mshr_misses::total         2533                       # number of demand (read+write) MSHR misses
system.l3cache.overall_mshr_misses::.cpu.inst          854                       # number of overall MSHR misses
system.l3cache.overall_mshr_misses::.cpu.data         1679                       # number of overall MSHR misses
system.l3cache.overall_mshr_misses::total         2533                       # number of overall MSHR misses
system.l3cache.ReadExReq_mshr_miss_latency::.cpu.data    100028500                       # number of ReadExReq MSHR miss cycles
system.l3cache.ReadExReq_mshr_miss_latency::total    100028500                       # number of ReadExReq MSHR miss cycles
system.l3cache.ReadSharedReq_mshr_miss_latency::.cpu.inst     76540000                       # number of ReadSharedReq MSHR miss cycles
system.l3cache.ReadSharedReq_mshr_miss_latency::.cpu.data     24601500                       # number of ReadSharedReq MSHR miss cycles
system.l3cache.ReadSharedReq_mshr_miss_latency::total    101141500                       # number of ReadSharedReq MSHR miss cycles
system.l3cache.demand_mshr_miss_latency::.cpu.inst     76540000                       # number of demand (read+write) MSHR miss cycles
system.l3cache.demand_mshr_miss_latency::.cpu.data    124630000                       # number of demand (read+write) MSHR miss cycles
system.l3cache.demand_mshr_miss_latency::total    201170000                       # number of demand (read+write) MSHR miss cycles
system.l3cache.overall_mshr_miss_latency::.cpu.inst     76540000                       # number of overall MSHR miss cycles
system.l3cache.overall_mshr_miss_latency::.cpu.data    124630000                       # number of overall MSHR miss cycles
system.l3cache.overall_mshr_miss_latency::total    201170000                       # number of overall MSHR miss cycles
system.l3cache.ReadExReq_mshr_miss_rate::.cpu.data            1                       # mshr miss rate for ReadExReq accesses
system.l3cache.ReadExReq_mshr_miss_rate::total            1                       # mshr miss rate for ReadExReq accesses
system.l3cache.ReadSharedReq_mshr_miss_rate::.cpu.inst            1                       # mshr miss rate for ReadSharedReq accesses
system.l3cache.ReadSharedReq_mshr_miss_rate::.cpu.data            1                       # mshr miss rate for ReadSharedReq accesses
system.l3cache.ReadSharedReq_mshr_miss_rate::total            1                       # mshr miss rate for ReadSharedReq accesses
system.l3cache.demand_mshr_miss_rate::.cpu.inst            1                       # mshr miss rate for demand accesses
system.l3cache.demand_mshr_miss_rate::.cpu.data            1                       # mshr miss rate for demand accesses
system.l3cache.demand_mshr_miss_rate::total            1                       # mshr miss rate for demand accesses
system.l3cache.overall_mshr_miss_rate::.cpu.inst            1                       # mshr miss rate for overall accesses
system.l3cache.overall_mshr_miss_rate::.cpu.data            1                       # mshr miss rate for overall accesses
system.l3cache.overall_mshr_miss_rate::total            1                       # mshr miss rate for overall accesses
system.l3cache.ReadExReq_avg_mshr_miss_latency::.cpu.data 71756.456241                       # average ReadExReq mshr miss latency
system.l3cache.ReadExReq_avg_mshr_miss_latency::total 71756.456241                       # average ReadExReq mshr miss latency
system.l3cache.ReadSharedReq_avg_mshr_miss_latency::.cpu.inst 89625.292740                       # average ReadSharedReq mshr miss latency
system.l3cache.ReadSharedReq_avg_mshr_miss_latency::.cpu.data 86321.052632                       # average ReadSharedReq mshr miss latency
system.l3cache.ReadSharedReq_avg_mshr_miss_latency::total 88798.507463                       # average ReadSharedReq mshr miss latency
system.l3cache.demand_avg_mshr_miss_latency::.cpu.inst 89625.292740                       # average overall mshr miss latency
system.l3cache.demand_avg_mshr_miss_latency::.cpu.data 74228.707564                       # average overall mshr miss latency
system.l3cache.demand_avg_mshr_miss_latency::total 79419.660482                       # average overall mshr miss latency
system.l3cache.overall_avg_mshr_miss_latency::.cpu.inst 89625.292740                       # average overall mshr miss latency
system.l3cache.overall_avg_mshr_miss_latency::.cpu.data 74228.707564                       # average overall mshr miss latency
system.l3cache.overall_avg_mshr_miss_latency::total 79419.660482                       # average overall mshr miss latency
system.l3cache.replacements                         0                       # number of replacements
system.membus.snoop_filter.tot_requests          2533                       # Total number of requests made to the snoop filter.
system.membus.snoop_filter.hit_single_requests            0                       # Number of requests hitting in the snoop filter with a single holder of the requested data.
system.membus.snoop_filter.hit_multi_requests            0                       # Number of requests hitting in the snoop filter with multiple (>1) holders of the requested data.
system.membus.snoop_filter.tot_snoops               0                       # Total number of snoops made to the snoop filter.
system.membus.snoop_filter.hit_single_snoops            0                       # Number of snoops hitting in the snoop filter with a single holder of the requested data.
system.membus.snoop_filter.hit_multi_snoops            0                       # Number of snoops hitting in the snoop filter with multiple (>1) holders of the requested data.
system.membus.pwrStateResidencyTicks::UNDEFINED   9590469500                       # Cumulative time (in ticks) in various power states
system.membus.trans_dist::ReadResp               1139                       # Transaction distribution
system.membus.trans_dist::ReadExReq              1394                       # Transaction distribution
system.membus.trans_dist::ReadExResp             1394                       # Transaction distribution
system.membus.trans_dist::ReadSharedReq          1139                       # Transaction distribution
system.membus.pkt_count_system.l3cache.mem_side::system.mem_ctrl.port         5066                       # Packet count per connected master and slave (bytes)
system.membus.pkt_count_system.l3cache.mem_side::total         5066                       # Packet count per connected master and slave (bytes)
system.membus.pkt_count::total                   5066                       # Packet count per connected master and slave (bytes)
system.membus.pkt_size_system.l3cache.mem_side::system.mem_ctrl.port       162112                       # Cumulative packet size per connected master and slave (bytes)
system.membus.pkt_size_system.l3cache.mem_side::total       162112                       # Cumulative packet size per connected master and slave (bytes)
system.membus.pkt_size::total                  162112                       # Cumulative packet size per connected master and slave (bytes)
system.membus.snoops                                0                       # Total snoops (count)
system.membus.snoopTraffic                          0                       # Total snoop traffic (bytes)
system.membus.snoop_fanout::samples              2533                       # Request fanout histogram
system.membus.snoop_fanout::mean                    0                       # Request fanout histogram
system.membus.snoop_fanout::stdev                   0                       # Request fanout histogram
system.membus.snoop_fanout::underflows              0      0.00%      0.00% # Request fanout histogram
system.membus.snoop_fanout::0                    2533    100.00%    100.00% # Request fanout histogram
system.membus.snoop_fanout::1                       0      0.00%    100.00% # Request fanout histogram
system.membus.snoop_fanout::overflows               0      0.00%    100.00% # Request fanout histogram
system.membus.snoop_fanout::min_value               0                       # Request fanout histogram
system.membus.snoop_fanout::max_value               0                       # Request fanout histogram
system.membus.snoop_fanout::total                2533                       # Request fanout histogram
system.membus.reqLayer0.occupancy             1266500                       # Layer occupancy (ticks)
system.membus.reqLayer0.utilization               0.0                       # Layer utilization (%)
system.membus.respLayer0.occupancy            6812250                       # Layer occupancy (ticks)
system.membus.respLayer0.utilization              0.1                       # Layer utilization (%)

---------- End Simulation Statistics   ----------