
---------- Begin Simulation Statistics ----------
sim_seconds                                  0.011035                       # Number of seconds simulated
sim_ticks                                 11035205000                       # Number of ticks simulated
final_tick                                11035205000                       # Number of ticks from beginning of simulation (restored from checkpoints and never reset)
sim_freq                                 1000000000000                       # Frequency of simulated ticks
host_inst_rate                                 271744                       # Simulator instruction rate (inst/s)
host_op_rate                                   466647                       # Simulator op (including micro ops) rate (op/s)
host_tick_rate                              159201108                       # Simulator tick rate (ticks/s)
host_mem_usage                                 660016                       # Number of bytes of host memory used
host_seconds                                    69.32                       # Real time elapsed on the host
sim_insts                                    18836239                       # Number of instructions simulated
sim_ops                                      32346156                       # Number of ops (including micro ops) simulated
system.clk_domain.voltage_domain.voltage            1                       # Voltage in Volts
system.clk_domain.clock                           500                       # Clock period in ticks
system.mem_ctrl.pwrStateResidencyTicks::UNDEFINED  11035205000                       # Cumulative time (in ticks) in various power states
system.mem_ctrl.bytes_read::.cpu.inst           53824                       # Number of bytes read from this memory
system.mem_ctrl.bytes_read::.cpu.data          107392                       # Number of bytes read from this memory
system.mem_ctrl.bytes_read::total              161216                       # Number of bytes read from this memory
system.mem_ctrl.bytes_inst_read::.cpu.inst        53824                       # Number of instructions bytes read from this memory
system.mem_ctrl.bytes_inst_read::total          53824                       # Number of instructions bytes read from this memory
system.mem_ctrl.num_reads::.cpu.inst              841                       # Number of read requests responded to by this memory
system.mem_ctrl.num_reads::.cpu.data             1678                       # Number of read requests responded to by this memory
system.mem_ctrl.num_reads::total                 2519                       # Number of read requests responded to by this memory
system.mem_ctrl.bw_read::.cpu.inst            4877481                       # Total read bandwidth from this memory (bytes/s)
system.mem_ctrl.bw_read::.cpu.data            9731763                       # Total read bandwidth from this memory (bytes/s)
system.mem_ctrl.bw_read::total               14609244                       # Total read bandwidth from this memory (bytes/s)
system.mem_ctrl.bw_inst_read::.cpu.inst       4877481                       # Instruction read bandwidth from this memory (bytes/s)
system.mem_ctrl.bw_inst_read::total           4877481                       # Instruction read bandwidth from this memory (bytes/s)
system.mem_ctrl.bw_total::.cpu.inst           4877481                       # Total bandwidth to/from this memory (bytes/s)
system.mem_ctrl.bw_total::.cpu.data           9731763                       # Total bandwidth to/from this memory (bytes/s)
system.mem_ctrl.bw_total::total              14609244                       # Total bandwidth to/from this memory (bytes/s)
system.mem_ctrl.avgPriority_.cpu.inst::samples       841.00                       # Average QoS priority value for accepted requests
system.mem_ctrl.avgPriority_.cpu.data::samples      1678.00                       # Average QoS priority value for accepted requests
system.mem_ctrl.priorityMinLatency       0.000000018750                       # per QoS priority minimum request to response latency (s)
system.mem_ctrl.priorityMaxLatency       0.000001100750                       # per QoS priority maximum request to response latency (s)
system.mem_ctrl.numReadWriteTurnArounds             0                       # Number of turnarounds from READ to WRITE
system.mem_ctrl.numWriteReadTurnArounds             0                       # Number of turnarounds from WRITE to READ
system.mem_ctrl.numStayReadState                 5696                       # Number of times bus staying in READ state
system.mem_ctrl.numStayWriteState                   0                       # Number of times bus staying in WRITE state
system.mem_ctrl.readReqs                         2519                       # Number of read requests accepted
system.mem_ctrl.writeReqs                           0                       # Number of write requests accepted
system.mem_ctrl.readBursts                       2519                       # Number of DRAM read bursts, including those serviced by the write queue
system.mem_ctrl.writeBursts                         0                       # Number of DRAM write bursts, including those merged in the write queue
system.mem_ctrl.bytesReadDRAM                  161216                       # Total number of bytes read from DRAM
system.mem_ctrl.bytesReadWrQ                        0                       # Total number of bytes read from write queue
system.mem_ctrl.bytesWritten                        0                       # Total number of bytes written to DRAM
system.mem_ctrl.bytesReadSys                   161216                       # Total read bytes from the system interface side
system.mem_ctrl.bytesWrittenSys                     0                       # Total written bytes from the system interface side
system.mem_ctrl.servicedByWrQ                       0                       # Number of DRAM read bursts serviced by the write queue
system.mem_ctrl.mergedWrBursts                      0                       # Number of DRAM write bursts merged with an existing one
system.mem_ctrl.neitherReadNorWriteReqs             0                       # Number of requests that are neither read nor write
system.mem_ctrl.perBankRdBursts::0                282                       # Per bank write bursts
system.mem_ctrl.perBankRdBursts::1                153                       # Per bank write bursts
system.mem_ctrl.perBankRdBursts::2                171                       # Per bank write bursts
system.mem_ctrl.perBankRdBursts::3                143                       # Per bank write bursts
system.mem_ctrl.perBankRdBursts::4                159                       # Per bank write bursts
system.mem_ctrl.perBankRdBursts::5                142                       # Per bank write bursts
system.mem_ctrl.perBankRdBursts::6                206                       # Per bank write bursts
system.mem_ctrl.perBankRdBursts::7                229                       # Per bank write bursts
system.mem_ctrl.perBankRdBursts::8                167                       # Per bank write bursts
system.mem_ctrl.perBankRdBursts::9                182                       # Per bank write bursts
system.mem_ctrl.perBankRdBursts::10               162                       # Per bank write bursts
system.mem_ctrl.perBankRdBursts::11               105                       # Per bank write bursts
system.mem_ctrl.perBankRdBursts::12                67                       # Per bank write bursts
system.mem_ctrl.perBankRdBursts::13                74                       # Per bank write bursts
system.mem_ctrl.perBankRdBursts::14               128                       # Per bank write bursts
system.mem_ctrl.perBankRdBursts::15               149                       # Per bank write bursts
system.mem_ctrl.perBankWrBursts::0                  0                       # Per bank write bursts
system.mem_ctrl.perBankWrBursts::1                  0                       # Per bank write bursts
system.mem_ctrl.perBankWrBursts::2                  0                       # Per bank write bursts
system.mem_ctrl.perBankWrBursts::3                  0                       # Per bank write bursts
system.mem_ctrl.perBankWrBursts::4                  0                       # Per bank write bursts
system.mem_ctrl.perBankWrBursts::5                  0                       # Per bank write bursts
system.mem_ctrl.perBankWrBursts::6                  0                       # Per bank write bursts
system.mem_ctrl.perBankWrBursts::7                  0                       # Per bank write bursts
system.mem_ctrl.perBankWrBursts::8                  0                       # Per bank write bursts
system.mem_ctrl.perBankWrBursts::9                  0                       # Per bank write bursts
system.mem_ctrl.perBankWrBursts::10                 0                       # Per bank write bursts
system.mem_ctrl.perBankWrBursts::11                 0                       # Per bank write bursts
system.mem_ctrl.perBankWrBursts::12                 0                       # Per bank write bursts
system.mem_ctrl.perBankWrBursts::13                 0                       # Per bank write bursts
system.mem_ctrl.perBankWrBursts::14                 0                       # Per bank write bursts
system.mem_ctrl.perBankWrBursts::15                 0                       # Per bank write bursts
system.mem_ctrl.numRdRetry                          0                       # Number of times read queue was full causing retry
system.mem_ctrl.numWrRetry                          0                       # Number of times write queue was full causing retry
system.mem_ctrl.totGap                    11035113500                       # Total gap between requests
system.mem_ctrl.readPktSize::0                      0                       # Read request sizes (log2)
system.mem_ctrl.readPktSize::1                      0                       # Read request sizes (log2)
system.mem_ctrl.readPktSize::2                      0                       # Read request sizes (log2)
system.mem_ctrl.readPktSize::3                      0                       # Read request sizes (log2)
system.mem_ctrl.readPktSize::4                      0                       # Read request sizes (log2)
system.mem_ctrl.readPktSize::5                      0                       # Read request sizes (log2)
system.mem_ctrl.readPktSize::6                   2519                       # Read request sizes (log2)
system.mem_ctrl.writePktSize::0                     0                       # Write request sizes (log2)
system.mem_ctrl.writePktSize::1                     0                       # Write request sizes (log2)
system.mem_ctrl.writePktSize::2                     0                       # Write request sizes (log2)
system.mem_ctrl.writePktSize::3                     0                       # Write request sizes (log2)
system.mem_ctrl.writePktSize::4                     0                       # Write request sizes (log2)
system.mem_ctrl.writePktSize::5                     0                       # Write request sizes (log2)
system.mem_ctrl.writePktSize::6                     0                       # Write request sizes (log2)
system.mem_ctrl.rdQLenPdf::0                     2107                       # What read queue length does an incoming req see
system.mem_ctrl.rdQLenPdf::1                      314                       # What read queue length does an incoming req see
system.mem_ctrl.rdQLenPdf::2                       75                       # What read queue length does an incoming req see
system.mem_ctrl.rdQLenPdf::3                       17                       # What read queue length does an incoming req see
system.mem_ctrl.rdQLenPdf::4                        5                       # What read queue length does an incoming req see
system.mem_ctrl.rdQLenPdf::5                        1                       # What read queue length does an incoming req see
system.mem_ctrl.rdQLenPdf::6                        0                       # What read queue length does an incoming req see
system.mem_ctrl.rdQLenPdf::7                        0                       # What read queue length does an incoming req see
system.mem_ctrl.rdQLenPdf::8                        0                       # What read queue length does an incoming req see
system.mem_ctrl.rdQLenPdf::9                        0                       # What read queue length does an incoming req see
system.mem_ctrl.rdQLenPdf::10                       0                       # What read queue length does an incoming req see
system.mem_ctrl.rdQLenPdf::11                       0                       # What read queue length does an incoming req see
system.mem_ctrl.rdQLenPdf::12                       0                       # What read queue length does an incoming req see
system.mem_ctrl.rdQLenPdf::13                       0                       # What read queue length does an incoming req see
system.mem_ctrl.rdQLenPdf::14                       0                       # What read queue length does an incoming req see
system.mem_ctrl.rdQLenPdf::15                       0                       # What read queue length does an incoming req see
system.mem_ctrl.rdQLenPdf::16                       0                       # What read queue length does an incoming req see
system.mem_ctrl.rdQLenPdf::17                       0                       # What read queue length does an incoming req see
system.mem_ctrl.rdQLenPdf::18                       0                       # What read queue length does an incoming req see
system.mem_ctrl.rdQLenPdf::19                       0                       # What read queue length does an incoming req see
system.mem_ctrl.rdQLenPdf::20                       0                       # What read queue length does an incoming req see
system.mem_ctrl.rdQLenPdf::21                       0                       # What read queue length does an incoming req see
system.mem_ctrl.rdQLenPdf::22                       0                       # What read queue length does an incoming req see
system.mem_ctrl.rdQLenPdf::23                       0                       # What read queue length does an incoming req see
system.mem_ctrl.rdQLenPdf::24                       0                       # What read queue length does an incoming req see
system.mem_ctrl.rdQLenPdf::25                       0                       # What read queue length does an incoming req see
system.mem_ctrl.rdQLenPdf::26                       0                       # What read queue length does an incoming req see
system.mem_ctrl.rdQLenPdf::27                       0                       # What read queue length does an incoming req see
system.mem_ctrl.rdQLenPdf::28                       0                       # What read queue length does an incoming req see
system.mem_ctrl.rdQLenPdf::29                       0                       # What read queue length does an incoming req see
system.mem_ctrl.rdQLenPdf::30                       0                       # What read queue length does an incoming req see
system.mem_ctrl.rdQLenPdf::31                       0                       # What read queue length does an incoming req see
system.mem_ctrl.wrQLenPdf::0                        0                       # What write queue length does an incoming req see
system.mem_ctrl.wrQLenPdf::1                        0                       # What write queue length does an incoming req see
system.mem_ctrl.wrQLenPdf::2                        0                       # What write queue length does an incoming req see
system.mem_ctrl.wrQLenPdf::3                        0                       # What write queue length does an incoming req see
system.mem_ctrl.wrQLenPdf::4                        0                       # What write queue length does an incoming req see
system.mem_ctrl.wrQLenPdf::5                        0                       # What write queue length does an incoming req see
system.mem_ctrl.wrQLenPdf::6                        0                       # What write queue length does an incoming req see
system.mem_ctrl.wrQLenPdf::7                        0                       # What write queue length does an incoming req see
system.mem_ctrl.wrQLenPdf::8                        0                       # What write queue length does an incoming req see
system.mem_ctrl.wrQLenPdf::9                        0                       # What write queue length does an incoming req see
system.mem_ctrl.wrQLenPdf::10                       0                       # What write queue length does an incoming req see
system.mem_ctrl.wrQLenPdf::11                       0                       # What write queue length does an incoming req see
system.mem_ctrl.wrQLenPdf::12                       0                       # What write queue length does an incoming req see
system.mem_ctrl.wrQLenPdf::13                       0                       # What write queue length does an incoming req see
system.mem_ctrl.wrQLenPdf::14                       0                       # What write queue length does an incoming req see
system.mem_ctrl.wrQLenPdf::15                       0                       # What write queue length does an incoming req see
system.mem_ctrl.wrQLenPdf::16                       0                       # What write queue length does an incoming req see
system.mem_ctrl.wrQLenPdf::17                       0                       # What write queue length does an incoming req see
system.mem_ctrl.wrQLenPdf::18                       0                       # What write queue length does an incoming req see
system.mem_ctrl.wrQLenPdf::19                       0                       # What write queue length does an incoming req see
system.mem_ctrl.wrQLenPdf::20                       0                       # What write queue length does an incoming req see
system.mem_ctrl.wrQLenPdf::21                       0                       # What write queue length does an incoming req see
system.mem_ctrl.wrQLenPdf::22                       0                       # What write queue length does an incoming req see
system.mem_ctrl.wrQLenPdf::23                       0                       # What write queue length does an incoming req see
system.mem_ctrl.wrQLenPdf::24                       0                       # What write queue length does an incoming req see
system.mem_ctrl.wrQLenPdf::25                       0                       # What write queue length does an incoming req see
system.mem_ctrl.wrQLenPdf::26                       0                       # What write queue length does an incoming req see
system.mem_ctrl.wrQLenPdf::27                       0                       # What write queue length does an incoming req see
system.mem_ctrl.wrQLenPdf::28                       0                       # What write queue length does an incoming req see
system.mem_ctrl.wrQLenPdf::29                       0                       # What write queue length does an incoming req see
system.mem_ctrl.wrQLenPdf::30                       0                       # What write queue length does an incoming req see
system.mem_ctrl.wrQLenPdf::31                       0                       # What write queue length does an incoming req see
system.mem_ctrl.wrQLenPdf::32                       0                       # What write queue length does an incoming req see
system.mem_ctrl.wrQLenPdf::33                       0                       # What write queue length does an incoming req see
system.mem_ctrl.wrQLenPdf::34                       0                       # What write queue length does an incoming req see
system.mem_ctrl.wrQLenPdf::35                       0                       # What write queue length does an incoming req see
system.mem_ctrl.wrQLenPdf::36                       0                       # What write queue length does an incoming req see
system.mem_ctrl.wrQLenPdf::37                       0                       # What write queue length does an incoming req see
system.mem_ctrl.wrQLenPdf::38                       0                       # What write queue length does an incoming req see
system.mem_ctrl.wrQLenPdf::39                       0                       # What write queue length does an incoming req see
system.mem_ctrl.wrQLenPdf::40                       0                       # What write queue length does an incoming req see
system.mem_ctrl.wrQLenPdf::41                       0                       # What write queue length does an incoming req see
system.mem_ctrl.wrQLenPdf::42                       0                       # What write queue length does an incoming req see
system.mem_ctrl.wrQLenPdf::43                       0                       # What write queue length does an incoming req see
system.mem_ctrl.wrQLenPdf::44                       0                       # What write queue length does an incoming req see
system.mem_ctrl.wrQLenPdf::45                       0                       # What write queue length does an incoming req see
system.mem_ctrl.wrQLenPdf::46                       0                       # What write queue length does an incoming req see
system.mem_ctrl.wrQLenPdf::47                       0                       # What write queue length does an incoming req see
system.mem_ctrl.wrQLenPdf::48                       0                       # What write queue length does an incoming req see
system.mem_ctrl.wrQLenPdf::49                       0                       # What write queue length does an incoming req see
system.mem_ctrl.wrQLenPdf::50                       0                       # What write queue length does an incoming req see
system.mem_ctrl.wrQLenPdf::51                       0                       # What write queue length does an incoming req see
system.mem_ctrl.wrQLenPdf::52                       0                       # What write queue length does an incoming req see
system.mem_ctrl.wrQLenPdf::53                       0                       # What write queue length does an incoming req see
system.mem_ctrl.wrQLenPdf::54                       0                       # What write queue length does an incoming req see
system.mem_ctrl.wrQLenPdf::55                       0                       # What write queue length does an incoming req see
system.mem_ctrl.wrQLenPdf::56                       0                       # What write queue length does an incoming req see
system.mem_ctrl.wrQLenPdf::57                       0                       # What write queue length does an incoming req see
system.mem_ctrl.wrQLenPdf::58                       0                       # What write queue length does an incoming req see
system.mem_ctrl.wrQLenPdf::59                       0                       # What write queue length does an incoming req see
system.mem_ctrl.wrQLenPdf::60                       0                       # What write queue length does an incoming req see
system.mem_ctrl.wrQLenPdf::61                       0                       # What write queue length does an incoming req see
system.mem_ctrl.wrQLenPdf::62                       0                       # What write queue length does an incoming req see
system.mem_ctrl.wrQLenPdf::63                       0                       # What write queue length does an incoming req see
system.mem_ctrl.bytesPerActivate::samples          882                       # Bytes accessed per row activation
system.mem_ctrl.bytesPerActivate::mean     180.535147                       # Bytes accessed per row activation
system.mem_ctrl.bytesPerActivate::gmean    110.932635                       # Bytes accessed per row activation
system.mem_ctrl.bytesPerActivate::stdev    248.925599                       # Bytes accessed per row activation
system.mem_ctrl.bytesPerActivate::0-127           523     59.30%     59.30% # Bytes accessed per row activation
system.mem_ctrl.bytesPerActivate::128-255          216     24.49%     83.79% # Bytes accessed per row activation
system.mem_ctrl.bytesPerActivate::256-383           30      3.40%     87.19% # Bytes accessed per row activation
system.mem_ctrl.bytesPerActivate::384-511           27      3.06%     90.25% # Bytes accessed per row activation
system.mem_ctrl.bytesPerActivate::512-639           16      1.81%     92.06% # Bytes accessed per row activation
system.mem_ctrl.bytesPerActivate::640-767            6      0.68%     92.74% # Bytes accessed per row activation
system.mem_ctrl.bytesPerActivate::768-895            9      1.02%     93.76% # Bytes accessed per row activation
system.mem_ctrl.bytesPerActivate::896-1023            6      0.68%     94.44% # Bytes accessed per row activation
system.mem_ctrl.bytesPerActivate::1024-1151           49      5.56%    100.00% # Bytes accessed per row activation
system.mem_ctrl.bytesPerActivate::total           882                       # Bytes accessed per row activation
system.mem_ctrl.masterReadBytes::.cpu.inst        53824                       # Per-master bytes read from memory
system.mem_ctrl.masterReadBytes::.cpu.data       107392                       # Per-master bytes read from memory
system.mem_ctrl.masterReadRate::.cpu.inst 4877480.753642546944                       # Per-master bytes read from memory rate (Bytes/sec)
system.mem_ctrl.masterReadRate::.cpu.data 9731763.025698209181                       # Per-master bytes read from memory rate (Bytes/sec)
system.mem_ctrl.masterReadAccesses::.cpu.inst          841                       # Per-master read serviced memory accesses
system.mem_ctrl.masterReadAccesses::.cpu.data         1678                       # Per-master read serviced memory accesses
system.mem_ctrl.masterReadTotalLat::.cpu.inst     45710750                       # Per-master read total memory access latency
system.mem_ctrl.masterReadTotalLat::.cpu.data     64458250                       # Per-master read total memory access latency
system.mem_ctrl.masterReadAvgLat::.cpu.inst     54352.85                       # Per-master read average memory access latency
system.mem_ctrl.masterReadAvgLat::.cpu.data     38413.74                       # Per-master read average memory access latency
system.mem_ctrl.totQLat                      62937750                       # Total ticks spent queuing
system.mem_ctrl.totMemAccLat                110169000                       # Total ticks spent from burst creation until serviced by the DRAM
system.mem_ctrl.totBusLat                    12595000                       # Total ticks spent in databus transfers
system.mem_ctrl.avgQLat                      24985.21                       # Average queueing delay per DRAM burst
system.mem_ctrl.avgBusLat                     5000.00                       # Average bus latency per DRAM burst
system.mem_ctrl.avgMemAccLat                 43735.21                       # Average memory access latency per DRAM burst
system.mem_ctrl.avgRdBW                         14.61                       # Average DRAM read bandwidth in MiByte/s
system.mem_ctrl.avgWrBW                          0.00                       # Average achieved write bandwidth in MiByte/s
system.mem_ctrl.avgRdBWSys                      14.61                       # Average system read bandwidth in MiByte/s
system.mem_ctrl.avgWrBWSys                       0.00                       # Average system write bandwidth in MiByte/s
system.mem_ctrl.peakBW                       12800.00                       # Theoretical peak bandwidth in MiByte/s
system.mem_ctrl.busUtil                          0.11                       # Data bus utilization in percentage
system.mem_ctrl.busUtilRead                      0.11                       # Data bus utilization in percentage for reads
system.mem_ctrl.busUtilWrite                     0.00                       # Data bus utilization in percentage for writes
system.mem_ctrl.avgRdQLen                        1.01                       # Average read queue length when enqueuing
system.mem_ctrl.avgWrQLen                        0.00                       # Average write queue length when enqueuing
system.mem_ctrl.readRowHits                      1629                       # Number of row buffer hits during reads
system.mem_ctrl.writeRowHits                        0                       # Number of row buffer hits during writes
system.mem_ctrl.readRowHitRate                  64.67                       # Row buffer hit rate for reads
system.mem_ctrl.writeRowHitRate                   nan                       # Row buffer hit rate for writes
system.mem_ctrl.avgGap                     4380751.69                       # Average gap between requests
system.mem_ctrl.pageHitRate                     64.67                       # Row buffer hit rate, read and write combined
system.mem_ctrl_0.actEnergy                   4690980                       # Energy for activate commands per rank (pJ)
system.mem_ctrl_0.preEnergy                   2474340                       # Energy for precharge commands per rank (pJ)
system.mem_ctrl_0.readEnergy                 10602900                       # Energy for read commands per rank (pJ)
system.mem_ctrl_0.writeEnergy                       0                       # Energy for write commands per rank (pJ)
system.mem_ctrl_0.refreshEnergy          355876560.000000                       # Energy for refresh commands per rank (pJ)
system.mem_ctrl_0.actBackEnergy              85530780                       # Energy for active background per rank (pJ)
system.mem_ctrl_0.preBackEnergy               9233760                       # Energy for precharge background per rank (pJ)
system.mem_ctrl_0.actPowerDownEnergy       1204657380                       # Energy for active power-down per rank (pJ)
system.mem_ctrl_0.prePowerDownEnergy        639009600                       # Energy for precharge power-down per rank (pJ)
system.mem_ctrl_0.selfRefreshEnergy        1573638780                       # Energy for self refresh per rank (pJ)
system.mem_ctrl_0.totalEnergy              3885715080                       # Total energy per rank (pJ)
system.mem_ctrl_0.averagePower             352.119882                       # Core power per rank (mW)
system.mem_ctrl_0.totalIdleTime           10823666000                       # Total Idle time Per DRAM Rank
system.mem_ctrl_0.memoryStateTime::IDLE       8154500                       # Time in different power states
system.mem_ctrl_0.memoryStateTime::REF      150540000                       # Time in different power states
system.mem_ctrl_0.memoryStateTime::SREF    6517711250                       # Time in different power states
system.mem_ctrl_0.memoryStateTime::PRE_PDN   1663960000                       # Time in different power states
system.mem_ctrl_0.memoryStateTime::ACT       52796250                       # Time in different power states
system.mem_ctrl_0.memoryStateTime::ACT_PDN   2642043000                       # Time in different power states
system.mem_ctrl_1.actEnergy                   1663620                       # Energy for activate commands per rank (pJ)
system.mem_ctrl_1.preEnergy                    872850                       # Energy for precharge commands per rank (pJ)
system.mem_ctrl_1.readEnergy                  7382760                       # Energy for read commands per rank (pJ)
system.mem_ctrl_1.writeEnergy                       0                       # Energy for write commands per rank (pJ)
system.mem_ctrl_1.refreshEnergy          62693280.000000                       # Energy for refresh commands per rank (pJ)
system.mem_ctrl_1.actBackEnergy              23434980                       # Energy for active background per rank (pJ)
system.mem_ctrl_1.preBackEnergy               3746400                       # Energy for precharge background per rank (pJ)
system.mem_ctrl_1.actPowerDownEnergy        241751250                       # Energy for active power-down per rank (pJ)
system.mem_ctrl_1.prePowerDownEnergy         81813120                       # Energy for precharge power-down per rank (pJ)
system.mem_ctrl_1.selfRefreshEnergy        2468104320                       # Energy for self refresh per rank (pJ)
system.mem_ctrl_1.totalEnergy              2891462580                       # Total energy per rank (pJ)
system.mem_ctrl_1.averagePower             262.021646                       # Core power per rank (mW)
system.mem_ctrl_1.totalIdleTime           10973891750                       # Total Idle time Per DRAM Rank
system.mem_ctrl_1.memoryStateTime::IDLE       6994000                       # Time in different power states
system.mem_ctrl_1.memoryStateTime::REF       26520000                       # Time in different power states
system.mem_ctrl_1.memoryStateTime::SREF   10230841000                       # Time in different power states
system.mem_ctrl_1.memoryStateTime::PRE_PDN    213045000                       # Time in different power states
system.mem_ctrl_1.memoryStateTime::ACT       27563500                       # Time in different power states
system.mem_ctrl_1.memoryStateTime::ACT_PDN    530241500                       # Time in different power states
system.pwrStateResidencyTicks::UNDEFINED  11035205000                       # Cumulative time (in ticks) in various power states
system.cpu.branchPred.lookups                 4743722                       # Number of BP lookups
system.cpu.branchPred.condPredicted           4743722                       # Number of conditional branches predicted
system.cpu.branchPred.condIncorrect            231430                       # Number of conditional branches incorrect
system.cpu.branchPred.BTBLookups              3883447                       # Number of BTB lookups
system.cpu.branchPred.BTBHits                       0                       # Number of BTB hits
system.cpu.branchPred.BTBCorrect                    0                       # Number of correct BTB predictions (this stat may not work properly.
system.cpu.branchPred.BTBHitPct              0.000000                       # BTB Hit Percentage
system.cpu.branchPred.usedRAS                  220758                       # Number of times the RAS was used to get a target.
system.cpu.branchPred.RASInCorrect              21049                       # Number of incorrect RAS predictions.
system.cpu.branchPred.indirectLookups         3883447                       # Number of indirect predictor lookups.
system.cpu.branchPred.indirectHits            1768792                       # Number of indirect target hits.
system.cpu.branchPred.indirectMisses          2114655                       # Number of indirect misses.
system.cpu.branchPredindirectMispredicted       112711                       # Number of mispredicted indirect branches.
system.cpu.dtb.walker.pwrStateResidencyTicks::UNDEFINED  11035205000                       # Cumulative time (in ticks) in various power states
system.cpu.dtb.rdAccesses                     7142155                       # TLB accesses on read requests
system.cpu.dtb.wrAccesses                     2638394                       # TLB accesses on write requests
system.cpu.dtb.rdMisses                          3138                       # TLB misses on read requests
system.cpu.dtb.wrMisses                           219                       # TLB misses on write requests
system.cpu.apic_clk_domain.clock                 8000                       # Clock period in ticks
system.cpu.interrupts.pwrStateResidencyTicks::UNDEFINED  11035205000                       # Cumulative time (in ticks) in various power states
system.cpu.itb.walker.pwrStateResidencyTicks::UNDEFINED  11035205000                       # Cumulative time (in ticks) in various power states
system.cpu.itb.rdAccesses                           0                       # TLB accesses on read requests
system.cpu.itb.wrAccesses                     3692017                       # TLB accesses on write requests
system.cpu.itb.rdMisses                             0                       # TLB misses on read requests
system.cpu.itb.wrMisses                           170                       # TLB misses on write requests
system.cpu.workload.numSyscalls                    23                       # Number of system calls
system.cpu.pwrStateResidencyTicks::ON     11035205000                       # Cumulative time (in ticks) in various power states
system.cpu.numCycles                         22070411                       # number of cpu cycles simulated
system.cpu.numWorkItemsStarted                      0                       # number of work items this cpu started
system.cpu.numWorkItemsCompleted                    0                       # number of work items this cpu completed
system.cpu.fetch.icacheStallCycles             239194                       # Number of cycles fetch is stalled on an Icache miss
system.cpu.fetch.Insts                       28199513                       # Number of instructions fetch has processed
system.cpu.fetch.Branches                     4743722                       # Number of branches that fetch encountered
system.cpu.fetch.predictedBranches            1989550                       # Number of branches that fetch has predicted taken
system.cpu.fetch.Cycles                      21557574                       # Number of cycles fetch has run and was not squashing or blocked
system.cpu.fetch.SquashCycles                  463902                       # Number of cycles fetch has spent squashing
system.cpu.fetch.MiscStallCycles                   66                       # Number of cycles fetch has spent waiting on interrupts, or bad addresses, or out of MSHRs
system.cpu.fetch.PendingTrapStallCycles          1296                       # Number of stall cycles due to pending traps
system.cpu.fetch.PendingQuiesceStallCycles           24                       # Number of stall cycles due to pending quiesce instructions
system.cpu.fetch.IcacheWaitRetryStallCycles           98                       # Number of stall cycles due to full MSHR
system.cpu.fetch.CacheLines                   3691904                       # Number of cache lines fetched
system.cpu.fetch.IcacheSquashes                   617                       # Number of outstanding Icache misses that were squashed
system.cpu.fetch.rateDist::samples           22030203                       # Number of instructions fetched each cycle (Total)
system.cpu.fetch.rateDist::mean              2.165905                       # Number of instructions fetched each cycle (Total)
system.cpu.fetch.rateDist::stdev             1.870259                       # Number of instructions fetched each cycle (Total)
system.cpu.fetch.rateDist::underflows               0      0.00%      0.00% # Number of instructions fetched each cycle (Total)
system.cpu.fetch.rateDist::0                  8613233     39.10%     39.10% # Number of instructions fetched each cycle (Total)
system.cpu.fetch.rateDist::1                   836151      3.80%     42.89% # Number of instructions fetched each cycle (Total)
system.cpu.fetch.rateDist::2                  1192504      5.41%     48.31% # Number of instructions fetched each cycle (Total)
system.cpu.fetch.rateDist::3                  1059084      4.81%     53.11% # Number of instructions fetched each cycle (Total)
system.cpu.fetch.rateDist::4                 10329231     46.89%    100.00% # Number of instructions fetched each cycle (Total)
system.cpu.fetch.rateDist::overflows                0      0.00%    100.00% # Number of instructions fetched each cycle (Total)
system.cpu.fetch.rateDist::min_value                0                       # Number of instructions fetched each cycle (Total)
system.cpu.fetch.rateDist::max_value                4                       # Number of instructions fetched each cycle (Total)
system.cpu.fetch.rateDist::total             22030203                       # Number of instructions fetched each cycle (Total)
system.cpu.fetch.branchRate                  0.214936                       # Number of branch fetches per cycle
system.cpu.fetch.rate                        1.277707                       # Number of inst fetches per cycle
system.cpu.decode.IdleCycles                  2709430                       # Number of cycles decode is idle
system.cpu.decode.BlockedCycles               8754601                       # Number of cycles decode is blocked
system.cpu.decode.RunCycles                   7383237                       # Number of cycles decode is running
system.cpu.decode.UnblockCycles               2950984                       # Number of cycles decode is unblocking
system.cpu.decode.SquashCycles                 231951                       # Number of cycles decode is squashing
system.cpu.decode.DecodedInsts               39878455                       # Number of instructions handled by decode
system.cpu.decode.SquashedInsts                648460                       # Number of squashed instructions handled by decode
system.cpu.rename.SquashCycles                 231951                       # Number of cycles rename is squashing
system.cpu.rename.IdleCycles                  4875821                       # Number of cycles rename is idle
system.cpu.rename.BlockCycles                 3833369                       # Number of cycles rename is blocking
system.cpu.rename.serializeStallCycles           1632                       # count of cycles rename stalled for serializing inst
system.cpu.rename.RunCycles                   7991034                       # Number of cycles rename is running
system.cpu.rename.UnblockCycles               5096396                       # Number of cycles rename is unblocking
system.cpu.rename.RenamedInsts               38835881                       # Number of instructions processed by rename
system.cpu.rename.SquashedInsts                268933                       # Number of squashed instructions processed by rename
system.cpu.rename.ROBFullEvents               4101867                       # Number of times rename has blocked due to ROB full
system.cpu.rename.IQFullEvents                  30305                       # Number of times rename has blocked due to IQ full
system.cpu.rename.SQFullEvents                 362268                       # Number of times rename has blocked due to SQ full
system.cpu.rename.RenamedOperands            44547745                       # Number of destination operands rename has renamed
system.cpu.rename.RenameLookups              98421139                       # Number of register rename lookups that rename has made
system.cpu.rename.int_rename_lookups         61017618                       # Number of integer rename lookups
system.cpu.rename.fp_rename_lookups             44263                       # Number of floating rename lookups
system.cpu.rename.CommittedMaps              37258541                       # Number of HB maps that are committed
system.cpu.rename.UndoneMaps                  7289204                       # Number of HB maps that are undone due to squashing
system.cpu.rename.serializingInsts                 48                       # count of serializing insts renamed
system.cpu.rename.tempSerializingInsts             42                       # count of temporary serializing insts renamed
system.cpu.rename.skidInsts                  10382732                       # count of insts added to the skid buffer
system.cpu.memDep0.insertedLoads              7863141                       # Number of loads inserted to the mem dependence unit.
system.cpu.memDep0.insertedStores             2963505                       # Number of stores inserted to the mem dependence unit.
system.cpu.memDep0.conflictingLoads           1896243                       # Number of conflicting loads.
system.cpu.memDep0.conflictingStores           473206                       # Number of conflicting stores.
system.cpu.iq.iqInstsAdded                   38116610                       # Number of instructions added to the IQ (excludes non-spec)
system.cpu.iq.iqNonSpecInstsAdded                7675                       # Number of non-speculative instructions added to the IQ
system.cpu.iq.iqInstsIssued                  36032415                       # Number of instructions issued
system.cpu.iq.iqSquashedInstsIssued            171819                       # Number of squashed instructions issued
system.cpu.iq.iqSquashedInstsExamined         5778128                       # Number of squashed instructions iterated over during squash; mainly for profiling
system.cpu.iq.iqSquashedOperandsExamined      7483967                       # Number of squashed operands that are examined and possibly removed from graph
system.cpu.iq.iqSquashedNonSpecRemoved           7652                       # Number of squashed non-spec instructions that were removed
system.cpu.iq.issued_per_cycle::samples      22030203                       # Number of insts issued each cycle
system.cpu.iq.issued_per_cycle::mean         1.635592                       # Number of insts issued each cycle
system.cpu.iq.issued_per_cycle::stdev        0.987885                       # Number of insts issued each cycle
system.cpu.iq.issued_per_cycle::underflows            0      0.00%      0.00% # Number of insts issued each cycle
system.cpu.iq.issued_per_cycle::0             3606355     16.37%     16.37% # Number of insts issued each cycle
system.cpu.iq.issued_per_cycle::1             5378578     24.41%     40.78% # Number of insts issued each cycle
system.cpu.iq.issued_per_cycle::2             8510873     38.63%     79.42% # Number of insts issued each cycle
system.cpu.iq.issued_per_cycle::3             4505497     20.45%     99.87% # Number of insts issued each cycle
system.cpu.iq.issued_per_cycle::4               28900      0.13%    100.00% # Number of insts issued each cycle
system.cpu.iq.issued_per_cycle::overflows            0      0.00%    100.00% # Number of insts issued each cycle
system.cpu.iq.issued_per_cycle::min_value            0                       # Number of insts issued each cycle
system.cpu.iq.issued_per_cycle::max_value            4                       # Number of insts issued each cycle
system.cpu.iq.issued_per_cycle::total        22030203                       # Number of insts issued each cycle
system.cpu.iq.fu_full::No_OpClass                   0      0.00%      0.00% # attempts to use FU when none available
system.cpu.iq.fu_full::IntAlu                 6979726     60.57%     60.57% # attempts to use FU when none available
system.cpu.iq.fu_full::IntMult                      0      0.00%     60.57% # attempts to use FU when none available
system.cpu.iq.fu_full::IntDiv                       0      0.00%     60.57% # attempts to use FU when none available
system.cpu.iq.fu_full::FloatAdd                     0      0.00%     60.57% # attempts to use FU when none available
system.cpu.iq.fu_full::FloatCmp                     0      0.00%     60.57% # attempts to use FU when none available
system.cpu.iq.fu_full::FloatCvt                     0      0.00%     60.57% # attempts to use FU when none available
system.cpu.iq.fu_full::FloatMult                    0      0.00%     60.57% # attempts to use FU when none available
system.cpu.iq.fu_full::FloatMultAcc                 0      0.00%     60.57% # attempts to use FU when none available
system.cpu.iq.fu_full::FloatDiv                     0      0.00%     60.57% # attempts to use FU when none available
system.cpu.iq.fu_full::FloatMisc                    0      0.00%     60.57% # attempts to use FU when none available
system.cpu.iq.fu_full::FloatSqrt                    0      0.00%     60.57% # attempts to use FU when none available
system.cpu.iq.fu_full::SimdAdd                    268      0.00%     60.57% # attempts to use FU when none available
system.cpu.iq.fu_full::SimdAddAcc                   0      0.00%     60.57% # attempts to use FU when none available
system.cpu.iq.fu_full::SimdAlu                     82      0.00%     60.58% # attempts to use FU when none available
system.cpu.iq.fu_full::SimdCmp                      0      0.00%     60.58% # attempts to use FU when none available
system.cpu.iq.fu_full::SimdCvt                     78      0.00%     60.58% # attempts to use FU when none available
system.cpu.iq.fu_full::SimdMisc                   147      0.00%     60.58% # attempts to use FU when none available
system.cpu.iq.fu_full::SimdMult                     0      0.00%     60.58% # attempts to use FU when none available
system.cpu.iq.fu_full::SimdMultAcc                  0      0.00%     60.58% # attempts to use FU when none available
system.cpu.iq.fu_full::SimdShift                  126      0.00%     60.58% # attempts to use FU when none available
system.cpu.iq.fu_full::SimdShiftAcc                 0      0.00%     60.58% # attempts to use FU when none available
system.cpu.iq.fu_full::SimdSqrt                     0      0.00%     60.58% # attempts to use FU when none available
system.cpu.iq.fu_full::SimdFloatAdd                 0      0.00%     60.58% # attempts to use FU when none available
system.cpu.iq.fu_full::SimdFloatAlu                 0      0.00%     60.58% # attempts to use FU when none available
system.cpu.iq.fu_full::SimdFloatCmp                 0      0.00%     60.58% # attempts to use FU when none available
system.cpu.iq.fu_full::SimdFloatCvt                 0      0.00%     60.58% # attempts to use FU when none available
system.cpu.iq.fu_full::SimdFloatDiv                 0      0.00%     60.58% # attempts to use FU when none available
system.cpu.iq.fu_full::SimdFloatMisc                0      0.00%     60.58% # attempts to use FU when none available
system.cpu.iq.fu_full::SimdFloatMult                0      0.00%     60.58% # attempts to use FU when none available
system.cpu.iq.fu_full::SimdFloatMultAcc             0      0.00%     60.58% # attempts to use FU when none available
system.cpu.iq.fu_full::SimdFloatSqrt                0      0.00%     60.58% # attempts to use FU when none available
system.cpu.iq.fu_full::SimdAes                      0      0.00%     60.58% # attempts to use FU when none available
system.cpu.iq.fu_full::SimdAesMix                   0      0.00%     60.58% # attempts to use FU when none available
system.cpu.iq.fu_full::SimdSha1Hash                 0      0.00%     60.58% # attempts to use FU when none available
system.cpu.iq.fu_full::SimdSha1Hash2                0      0.00%     60.58% # attempts to use FU when none available
system.cpu.iq.fu_full::SimdSha256Hash               0      0.00%     60.58% # attempts to use FU when none available
system.cpu.iq.fu_full::SimdSha256Hash2              0      0.00%     60.58% # attempts to use FU when none available
system.cpu.iq.fu_full::SimdShaSigma2                0      0.00%     60.58% # attempts to use FU when none available
system.cpu.iq.fu_full::SimdShaSigma3                0      0.00%     60.58% # attempts to use FU when none available
system.cpu.iq.fu_full::MemRead                3864234     33.54%     94.11% # attempts to use FU when none available
system.cpu.iq.fu_full::MemWrite                678293      5.89%    100.00% # attempts to use FU when none available
system.cpu.iq.fu_full::FloatMemRead                 0      0.00%    100.00% # attempts to use FU when none available
system.cpu.iq.fu_full::FloatMemWrite                0      0.00%    100.00% # attempts to use FU when none available
system.cpu.iq.fu_full::IprAccess                    0      0.00%    100.00% # attempts to use FU when none available
system.cpu.iq.fu_full::InstPrefetch                 0      0.00%    100.00% # attempts to use FU when none available
system.cpu.iq.FU_type_0::No_OpClass             22848      0.06%      0.06% # Type of FU issued
system.cpu.iq.FU_type_0::IntAlu              25972436     72.08%     72.14% # Type of FU issued
system.cpu.iq.FU_type_0::IntMult                59920      0.17%     72.31% # Type of FU issued
system.cpu.iq.FU_type_0::IntDiv                    31      0.00%     72.31% # Type of FU issued
system.cpu.iq.FU_type_0::FloatAdd               10019      0.03%     72.34% # Type of FU issued
system.cpu.iq.FU_type_0::FloatCmp                   0      0.00%     72.34% # Type of FU issued
system.cpu.iq.FU_type_0::FloatCvt                   0      0.00%     72.34% # Type of FU issued
system.cpu.iq.FU_type_0::FloatMult                  0      0.00%     72.34% # Type of FU issued
system.cpu.iq.FU_type_0::FloatMultAcc               0      0.00%     72.34% # Type of FU issued
system.cpu.iq.FU_type_0::FloatDiv                   0      0.00%     72.34% # Type of FU issued
system.cpu.iq.FU_type_0::FloatMisc                  0      0.00%     72.34% # Type of FU issued
system.cpu.iq.FU_type_0::FloatSqrt                  0      0.00%     72.34% # Type of FU issued
system.cpu.iq.FU_type_0::SimdAdd                  377      0.00%     72.34% # Type of FU issued
system.cpu.iq.FU_type_0::SimdAddAcc                 0      0.00%     72.34% # Type of FU issued
system.cpu.iq.FU_type_0::SimdAlu                   99      0.00%     72.34% # Type of FU issued
system.cpu.iq.FU_type_0::SimdCmp                    0      0.00%     72.34% # Type of FU issued
system.cpu.iq.FU_type_0::SimdCvt                  151      0.00%     72.34% # Type of FU issued
system.cpu.iq.FU_type_0::SimdMisc                 259      0.00%     72.34% # Type of FU issued
system.cpu.iq.FU_type_0::SimdMult                   0      0.00%     72.34% # Type of FU issued
system.cpu.iq.FU_type_0::SimdMultAcc                0      0.00%     72.34% # Type of FU issued
system.cpu.iq.FU_type_0::SimdShift                186      0.00%     72.34% # Type of FU issued
system.cpu.iq.FU_type_0::SimdShiftAcc               0      0.00%     72.34% # Type of FU issued
system.cpu.iq.FU_type_0::SimdSqrt                   0      0.00%     72.34% # Type of FU issued
system.cpu.iq.FU_type_0::SimdFloatAdd               0      0.00%     72.34% # Type of FU issued
system.cpu.iq.FU_type_0::SimdFloatAlu               0      0.00%     72.34% # Type of FU issued
system.cpu.iq.FU_type_0::SimdFloatCmp               0      0.00%     72.34% # Type of FU issued
system.cpu.iq.FU_type_0::SimdFloatCvt               0      0.00%     72.34% # Type of FU issued
system.cpu.iq.FU_type_0::SimdFloatDiv               0      0.00%     72.34% # Type of FU issued
system.cpu.iq.FU_type_0::SimdFloatMisc              0      0.00%     72.34% # Type of FU issued
system.cpu.iq.FU_type_0::SimdFloatMult              0      0.00%     72.34% # Type of FU issued
system.cpu.iq.FU_type_0::SimdFloatMultAcc            0      0.00%     72.34% # Type of FU issued
system.cpu.iq.FU_type_0::SimdFloatSqrt              0      0.00%     72.34% # Type of FU issued
system.cpu.iq.FU_type_0::SimdAes                    0      0.00%     72.34% # Type of FU issued
system.cpu.iq.FU_type_0::SimdAesMix                 0      0.00%     72.34% # Type of FU issued
system.cpu.iq.FU_type_0::SimdSha1Hash               0      0.00%     72.34% # Type of FU issued
system.cpu.iq.FU_type_0::SimdSha1Hash2              0      0.00%     72.34% # Type of FU issued
system.cpu.iq.FU_type_0::SimdSha256Hash             0      0.00%     72.34% # Type of FU issued
system.cpu.iq.FU_type_0::SimdSha256Hash2            0      0.00%     72.34% # Type of FU issued
system.cpu.iq.FU_type_0::SimdShaSigma2              0      0.00%     72.34% # Type of FU issued
system.cpu.iq.FU_type_0::SimdShaSigma3              0      0.00%     72.34% # Type of FU issued
system.cpu.iq.FU_type_0::MemRead              7223687     20.05%     92.39% # Type of FU issued
system.cpu.iq.FU_type_0::MemWrite             2661783      7.39%     99.78% # Type of FU issued
system.cpu.iq.FU_type_0::FloatMemRead           40132      0.11%     99.89% # Type of FU issued
system.cpu.iq.FU_type_0::FloatMemWrite          40487      0.11%    100.00% # Type of FU issued
system.cpu.iq.FU_type_0::IprAccess                  0      0.00%    100.00% # Type of FU issued
system.cpu.iq.FU_type_0::InstPrefetch               0      0.00%    100.00% # Type of FU issued
system.cpu.iq.FU_type_0::total               36032415                       # Type of FU issued
system.cpu.iq.rate                           1.632612                       # Inst issue rate
system.cpu.iq.fu_busy_cnt                    11522954                       # FU busy when requested
system.cpu.iq.fu_busy_rate                   0.319794                       # FU busy rate (busy events/executed inst)
system.cpu.iq.int_inst_queue_reads          105604508                       # Number of integer instruction queue reads
system.cpu.iq.int_inst_queue_writes          43810457                       # Number of integer instruction queue writes
system.cpu.iq.int_inst_queue_wakeup_accesses     35202639                       # Number of integer instruction queue wakeup accesses
system.cpu.iq.fp_inst_queue_reads              185298                       # Number of floating instruction queue reads
system.cpu.iq.fp_inst_queue_writes              92507                       # Number of floating instruction queue writes
system.cpu.iq.fp_inst_queue_wakeup_accesses        92192                       # Number of floating instruction queue wakeup accesses
system.cpu.iq.vec_inst_queue_reads                  0                       # Number of vector instruction queue reads
system.cpu.iq.vec_inst_queue_writes                 0                       # Number of vector instruction queue writes
system.cpu.iq.vec_inst_queue_wakeup_accesses            0                       # Number of vector instruction queue wakeup accesses
system.cpu.iq.int_alu_accesses               47439481                       # Number of integer alu accesses
system.cpu.iq.fp_alu_accesses                   93040                       # Number of floating point alu accesses
system.cpu.iq.vec_alu_accesses                      0                       # Number of vector alu accesses
system.cpu.iew.lsq.thread0.forwLoads           962910                       # Number of loads that had data forwarded from stores
system.cpu.iew.lsq.thread0.invAddrLoads             0                       # Number of loads ignored due to an invalid address
system.cpu.iew.lsq.thread0.squashedLoads      1643245                       # Number of loads squashed
system.cpu.iew.lsq.thread0.ignoredResponses         6926                       # Number of memory responses ignored because the instruction is squashed
system.cpu.iew.lsq.thread0.memOrderViolation          555                       # Number of memory ordering violations
system.cpu.iew.lsq.thread0.squashedStores       483096                       # Number of stores squashed
system.cpu.iew.lsq.thread0.invAddrSwpfs             0                       # Number of software prefetches ignored due to an invalid address
system.cpu.iew.lsq.thread0.blockedLoads             0                       # Number of blocked loads due to partial load-store forwarding
system.cpu.iew.lsq.thread0.rescheduledLoads            3                       # Number of loads that were rescheduled
system.cpu.iew.lsq.thread0.cacheBlocked            12                       # Number of times an access to memory failed due to the cache being blocked
system.cpu.iew.iewIdleCycles                        0                       # Number of cycles IEW is idle
system.cpu.iew.iewSquashCycles                 231951                       # Number of cycles IEW is squashing
system.cpu.iew.iewBlockCycles                   80522                       # Number of cycles IEW is blocking
system.cpu.iew.iewUnblockCycles                  3624                       # Number of cycles IEW is unblocking
system.cpu.iew.iewDispatchedInsts            38124285                       # Number of instructions dispatched to IQ
system.cpu.iew.iewDispSquashedInsts            250742                       # Number of squashed instructions skipped by dispatch
system.cpu.iew.iewDispLoadInsts               7863141                       # Number of dispatched load instructions
system.cpu.iew.iewDispStoreInsts              2963505                       # Number of dispatched store instructions
system.cpu.iew.iewDispNonSpecInsts               3282                       # Number of dispatched non-speculative instructions
system.cpu.iew.iewIQFullEvents                      2                       # Number of times the IQ has become full, causing a stall
system.cpu.iew.iewLSQFullEvents                  3606                       # Number of times the LSQ has become full, causing a stall
system.cpu.iew.memOrderViolationEvents            555                       # Number of memory order violations
system.cpu.iew.predictedTakenIncorrect          77409                       # Number of branches that were predicted taken incorrectly
system.cpu.iew.predictedNotTakenIncorrect       182578                       # Number of branches that were predicted not taken incorrectly
system.cpu.iew.branchMispredicts               259987                       # Number of branch mispredicts detected at execute
system.cpu.iew.iewExecutedInsts              35411625                       # Number of executed instructions
system.cpu.iew.iewExecLoadInsts               7142125                       # Number of load instructions executed
system.cpu.iew.iewExecSquashedInsts            620790                       # Number of squashed instructions skipped in execute
system.cpu.iew.exec_swp                             0                       # number of swp insts executed
system.cpu.iew.exec_nop                             0                       # number of nop insts executed
system.cpu.iew.exec_refs                      9780517                       # number of memory reference insts executed
system.cpu.iew.exec_branches                  3575167                       # Number of branches executed
system.cpu.iew.exec_stores                    2638392                       # Number of stores executed
system.cpu.iew.exec_rate                     1.604484                       # Inst execution rate
system.cpu.iew.wb_sent                       35298274                       # cumulative count of insts sent to commit
system.cpu.iew.wb_count                      35294831                       # cumulative count of insts written-back
system.cpu.iew.wb_producers                  27019179                       # num instructions producing a value
system.cpu.iew.wb_consumers                  37257929                       # num instructions consuming a value
system.cpu.iew.wb_rate                       1.599192                       # insts written-back per cycle
system.cpu.iew.wb_fanout                     0.725193                       # average fanout of values written-back
system.cpu.commit.commitSquashedInsts         5393277                       # The number of squashed insts skipped by commit
system.cpu.commit.commitNonSpecStalls              23                       # The number of times commit has been forced to stall to communicate backwards
system.cpu.commit.branchMispredicts            231482                       # The number of times a branch was mispredicted
system.cpu.commit.committed_per_cycle::samples     21718339                       # Number of insts commited each cycle
system.cpu.commit.committed_per_cycle::mean     1.489348                       # Number of insts commited each cycle
system.cpu.commit.committed_per_cycle::stdev     1.620094                       # Number of insts commited each cycle
system.cpu.commit.committed_per_cycle::underflows            0      0.00%      0.00% # Number of insts commited each cycle
system.cpu.commit.committed_per_cycle::0      9666109     44.51%     44.51% # Number of insts commited each cycle
system.cpu.commit.committed_per_cycle::1      3242399     14.93%     59.44% # Number of insts commited each cycle
system.cpu.commit.committed_per_cycle::2      1964099      9.04%     68.48% # Number of insts commited each cycle
system.cpu.commit.committed_per_cycle::3      2207369     10.16%     78.64% # Number of insts commited each cycle
system.cpu.commit.committed_per_cycle::4      4638363     21.36%    100.00% # Number of insts commited each cycle
system.cpu.commit.committed_per_cycle::overflows            0      0.00%    100.00% # Number of insts commited each cycle
system.cpu.commit.committed_per_cycle::min_value            0                       # Number of insts commited each cycle
system.cpu.commit.committed_per_cycle::max_value            4                       # Number of insts commited each cycle
system.cpu.commit.committed_per_cycle::total     21718339                       # Number of insts commited each cycle
system.cpu.commit.committedInsts             18836239                       # Number of instructions committed
system.cpu.commit.committedOps               32346156                       # Number of ops (including micro ops) committed
system.cpu.commit.swp_count                         0                       # Number of s/w prefetches committed
system.cpu.commit.refs                        8700305                       # Number of memory references committed
system.cpu.commit.loads                       6219896                       # Number of loads committed
system.cpu.commit.membars                           0                       # Number of memory barriers committed
system.cpu.commit.branches                    3419410                       # Number of branches committed
system.cpu.commit.vec_insts                         0                       # Number of committed Vector instructions.
system.cpu.commit.fp_insts                      92099                       # Number of committed floating point instructions.
system.cpu.commit.int_insts                  32294501                       # Number of committed integer instructions.
system.cpu.commit.function_calls               120304                       # Number of function calls committed.
system.cpu.commit.op_class_0::No_OpClass        10140      0.03%      0.03% # Class of committed instruction
system.cpu.commit.op_class_0::IntAlu         23565672     72.85%     72.89% # Class of committed instruction
system.cpu.commit.op_class_0::IntMult           58948      0.18%     73.07% # Class of committed instruction
system.cpu.commit.op_class_0::IntDiv               28      0.00%     73.07% # Class of committed instruction
system.cpu.commit.op_class_0::FloatAdd          10014      0.03%     73.10% # Class of committed instruction
system.cpu.commit.op_class_0::FloatCmp              0      0.00%     73.10% # Class of committed instruction
system.cpu.commit.op_class_0::FloatCvt              0      0.00%     73.10% # Class of committed instruction
system.cpu.commit.op_class_0::FloatMult             0      0.00%     73.10% # Class of committed instruction
system.cpu.commit.op_class_0::FloatMultAcc            0      0.00%     73.10% # Class of committed instruction
system.cpu.commit.op_class_0::FloatDiv              0      0.00%     73.10% # Class of committed instruction
system.cpu.commit.op_class_0::FloatMisc             0      0.00%     73.10% # Class of committed instruction
system.cpu.commit.op_class_0::FloatSqrt             0      0.00%     73.10% # Class of committed instruction
system.cpu.commit.op_class_0::SimdAdd             374      0.00%     73.10% # Class of committed instruction
system.cpu.commit.op_class_0::SimdAddAcc            0      0.00%     73.10% # Class of committed instruction
system.cpu.commit.op_class_0::SimdAlu              94      0.00%     73.10% # Class of committed instruction
system.cpu.commit.op_class_0::SimdCmp               0      0.00%     73.10% # Class of committed instruction
system.cpu.commit.op_class_0::SimdCvt             140      0.00%     73.10% # Class of committed instruction
system.cpu.commit.op_class_0::SimdMisc            255      0.00%     73.10% # Class of committed instruction
system.cpu.commit.op_class_0::SimdMult              0      0.00%     73.10% # Class of committed instruction
system.cpu.commit.op_class_0::SimdMultAcc            0      0.00%     73.10% # Class of committed instruction
system.cpu.commit.op_class_0::SimdShift           186      0.00%     73.10% # Class of committed instruction
system.cpu.commit.op_class_0::SimdShiftAcc            0      0.00%     73.10% # Class of committed instruction
system.cpu.commit.op_class_0::SimdSqrt              0      0.00%     73.10% # Class of committed instruction
system.cpu.commit.op_class_0::SimdFloatAdd            0      0.00%     73.10% # Class of committed instruction
system.cpu.commit.op_class_0::SimdFloatAlu            0      0.00%     73.10% # Class of committed instruction
system.cpu.commit.op_class_0::SimdFloatCmp            0      0.00%     73.10% # Class of committed instruction
system.cpu.commit.op_class_0::SimdFloatCvt            0      0.00%     73.10% # Class of committed instruction
system.cpu.commit.op_class_0::SimdFloatDiv            0      0.00%     73.10% # Class of committed instruction
system.cpu.commit.op_class_0::SimdFloatMisc            0      0.00%     73.10% # Class of committed instruction
system.cpu.commit.op_class_0::SimdFloatMult            0      0.00%     73.10% # Class of committed instruction
system.cpu.commit.op_class_0::SimdFloatMultAcc            0      0.00%     73.10% # Class of committed instruction
system.cpu.commit.op_class_0::SimdFloatSqrt            0      0.00%     73.10% # Class of committed instruction
system.cpu.commit.op_class_0::SimdAes               0      0.00%     73.10% # Class of committed instruction
system.cpu.commit.op_class_0::SimdAesMix            0      0.00%     73.10% # Class of committed instruction
system.cpu.commit.op_class_0::SimdSha1Hash            0      0.00%     73.10% # Class of committed instruction
system.cpu.commit.op_class_0::SimdSha1Hash2            0      0.00%     73.10% # Class of committed instruction
system.cpu.commit.op_class_0::SimdSha256Hash            0      0.00%     73.10% # Class of committed instruction
system.cpu.commit.op_class_0::SimdSha256Hash2            0      0.00%     73.10% # Class of committed instruction
system.cpu.commit.op_class_0::SimdShaSigma2            0      0.00%     73.10% # Class of committed instruction
system.cpu.commit.op_class_0::SimdShaSigma3            0      0.00%     73.10% # Class of committed instruction
system.cpu.commit.op_class_0::MemRead         6179810     19.11%     92.21% # Class of committed instruction
system.cpu.commit.op_class_0::MemWrite        2439984      7.54%     99.75% # Class of committed instruction
system.cpu.commit.op_class_0::FloatMemRead        40086      0.12%     99.88% # Class of committed instruction
system.cpu.commit.op_class_0::FloatMemWrite        40425      0.12%    100.00% # Class of committed instruction
system.cpu.commit.op_class_0::IprAccess             0      0.00%    100.00% # Class of committed instruction
system.cpu.commit.op_class_0::InstPrefetch            0      0.00%    100.00% # Class of committed instruction
system.cpu.commit.op_class_0::total          32346156                       # Class of committed instruction
system.cpu.commit.bw_lim_events               4638363                       # number cycles where commit BW limit reached
system.cpu.rob.rob_reads                     54819409                       # The number of ROB reads
system.cpu.rob.rob_writes                    75790730                       # The number of ROB writes
system.cpu.timesIdled                             441                       # Number of times that the entire CPU went into an idle state and unscheduled itself
system.cpu.idleCycles                           40208                       # Total number of cycles that the CPU has spent unscheduled due to idling
system.cpu.committedInsts                    18836239                       # Number of Instructions Simulated
system.cpu.committedOps                      32346156                       # Number of Ops (including micro ops) Simulated
system.cpu.cpi                               1.171699                       # CPI: Cycles Per Instruction
system.cpu.cpi_total                         1.171699                       # CPI: Total CPI of All Threads
system.cpu.ipc                               0.853461                       # IPC: Instructions Per Cycle
system.cpu.ipc_total                         0.853461                       # IPC: Total IPC of All Threads
system.cpu.int_regfile_reads                 54620615                       # number of integer regfile reads
system.cpu.int_regfile_writes                29010975                       # number of integer regfile writes
system.cpu.fp_regfile_reads                     44111                       # number of floating regfile reads
system.cpu.fp_regfile_writes                    51652                       # number of floating regfile writes
system.cpu.cc_regfile_reads                  16817119                       # number of cc regfile reads
system.cpu.cc_regfile_writes                 11407658                       # number of cc regfile writes
system.cpu.misc_regfile_reads                17217073                       # number of misc regfile reads
system.cpu.dcache.tags.pwrStateResidencyTicks::UNDEFINED  11035205000                       # Cumulative time (in ticks) in various power states
system.cpu.dcache.tags.tagsinuse           502.277133                       # Cycle average of tags in use
system.cpu.dcache.tags.total_refs             8655568                       # Total number of references to valid blocks.
system.cpu.dcache.tags.sampled_refs              6541                       # Sample count of references to valid blocks.
system.cpu.dcache.tags.avg_refs           1323.279009                       # Average number of references to valid blocks.
system.cpu.dcache.tags.warmup_cycle            169500                       # Cycle when the warmup percentage was hit.
system.cpu.dcache.tags.occ_blocks::.cpu.data   502.277133                       # Average occupied blocks per requestor
system.cpu.dcache.tags.occ_percent::.cpu.data     0.981010                       # Average percentage of cache occupancy
system.cpu.dcache.tags.occ_percent::total     0.981010                       # Average percentage of cache occupancy
system.cpu.dcache.tags.occ_task_id_blocks::1024          512                       # Occupied blocks per task id
system.cpu.dcache.tags.age_task_id_blocks_1024::0           81                       # Occupied blocks per task id
system.cpu.dcache.tags.age_task_id_blocks_1024::1          428                       # Occupied blocks per task id
system.cpu.dcache.tags.age_task_id_blocks_1024::2            2                       # Occupied blocks per task id
system.cpu.dcache.tags.age_task_id_blocks_1024::4            1                       # Occupied blocks per task id
system.cpu.dcache.tags.occ_task_id_percent::1024            1                       # Percentage of cache occupancy per task id
system.cpu.dcache.tags.tag_accesses          69258701                       # Number of tag accesses
system.cpu.dcache.tags.data_accesses         69258701                       # Number of data accesses
system.cpu.dcache.pwrStateResidencyTicks::UNDEFINED  11035205000                       # Cumulative time (in ticks) in various power states
system.cpu.dcache.ReadReq_hits::.cpu.data      6171911                       # number of ReadReq hits
system.cpu.dcache.ReadReq_hits::total         6171911                       # number of ReadReq hits
system.cpu.dcache.WriteReq_hits::.cpu.data      2477116                       # number of WriteReq hits
system.cpu.dcache.WriteReq_hits::total        2477116                       # number of WriteReq hits
system.cpu.dcache.demand_hits::.cpu.data      8649027                       # number of demand (read+write) hits
system.cpu.dcache.demand_hits::total          8649027                       # number of demand (read+write) hits
system.cpu.dcache.overall_hits::.cpu.data      8649027                       # number of overall hits
system.cpu.dcache.overall_hits::total         8649027                       # number of overall hits
system.cpu.dcache.ReadReq_misses::.cpu.data         4200                       # number of ReadReq misses
system.cpu.dcache.ReadReq_misses::total          4200                       # number of ReadReq misses
system.cpu.dcache.WriteReq_misses::.cpu.data         3293                       # number of WriteReq misses
system.cpu.dcache.WriteReq_misses::total         3293                       # number of WriteReq misses
system.cpu.dcache.demand_misses::.cpu.data         7493                       # number of demand (read+write) misses
system.cpu.dcache.demand_misses::total           7493                       # number of demand (read+write) misses
system.cpu.dcache.overall_misses::.cpu.data         7493                       # number of overall misses
system.cpu.dcache.overall_misses::total          7493                       # number of overall misses
system.cpu.dcache.ReadReq_miss_latency::.cpu.data     81806000                       # number of ReadReq miss cycles
system.cpu.dcache.ReadReq_miss_latency::total     81806000                       # number of ReadReq miss cycles
system.cpu.dcache.WriteReq_miss_latency::.cpu.data    145253500                       # number of WriteReq miss cycles
system.cpu.dcache.WriteReq_miss_latency::total    145253500                       # number of WriteReq miss cycles
system.cpu.dcache.demand_miss_latency::.cpu.data    227059500                       # number of demand (read+write) miss cycles
system.cpu.dcache.demand_miss_latency::total    227059500                       # number of demand (read+write) miss cycles
system.cpu.dcache.overall_miss_latency::.cpu.data    227059500                       # number of overall miss cycles
system.cpu.dcache.overall_miss_latency::total    227059500                       # number of overall miss cycles
system.cpu.dcache.ReadReq_accesses::.cpu.data      6176111                       # number of ReadReq accesses(hits+misses)
system.cpu.dcache.ReadReq_accesses::total      6176111                       # number of ReadReq accesses(hits+misses)
system.cpu.dcache.WriteReq_accesses::.cpu.data      2480409                       # number of WriteReq accesses(hits+misses)
system.cpu.dcache.WriteReq_accesses::total      2480409                       # number of WriteReq accesses(hits+misses)
system.cpu.dcache.demand_accesses::.cpu.data      8656520                       # number of demand (read+write) accesses
system.cpu.dcache.demand_accesses::total      8656520                       # number of demand (read+write) accesses
system.cpu.dcache.overall_accesses::.cpu.data      8656520                       # number of overall (read+write) accesses
system.cpu.dcache.overall_accesses::total      8656520                       # number of overall (read+write) accesses
system.cpu.dcache.ReadReq_miss_rate::.cpu.data     0.000680                       # miss rate for ReadReq accesses
system.cpu.dcache.ReadReq_miss_rate::total     0.000680                       # miss rate for ReadReq accesses
system.cpu.dcache.WriteReq_miss_rate::.cpu.data     0.001328                       # miss rate for WriteReq accesses
system.cpu.dcache.WriteReq_miss_rate::total     0.001328                       # miss rate for WriteReq accesses
system.cpu.dcache.demand_miss_rate::.cpu.data     0.000866                       # miss rate for demand accesses
system.cpu.dcache.demand_miss_rate::total     0.000866                       # miss rate for demand accesses
system.cpu.dcache.overall_miss_rate::.cpu.data     0.000866                       # miss rate for overall accesses
system.cpu.dcache.overall_miss_rate::total     0.000866                       # miss rate for overall accesses
[...]
system.l3bus.snoop_fanout::min_value                0                       # Request fanout histogram
system.l3bus.snoop_fanout::max_value                0                       # Request fanout histogram
system.l3bus.snoop_fanout::total                 2519                       # Request fanout histogram
system.l3bus.reqLayer0.occupancy              1260500                       # Layer occupancy (ticks)
system.l3bus.reqLayer0.utilization                0.0                       # Layer utilization (%)
system.l3bus.respLayer0.occupancy             6297500                       # Layer occupancy (ticks)
system.l3bus.respLayer0.utilization               0.1                       # Layer utilization (%)
system.l3cache.tags.pwrStateResidencyTicks::UNDEFINED  11035205000                       # Cumulative time (in ticks) in various power states
system.l3cache.tags.tagsinuse             1774.211182                       # Cycle average of tags in use
system.l3cache.tags.total_refs                   2519                       # Total number of references to valid blocks.
system.l3cache.tags.sampled_refs                 2519                       # Sample count of references to valid blocks.
system.l3cache.tags.avg_refs                        1                       # Average number of references to valid blocks.
system.l3cache.tags.warmup_cycle                76000                       # Cycle when the warmup percentage was hit.
system.l3cache.tags.occ_blocks::.cpu.inst   737.981137                       # Average occupied blocks per requestor
system.l3cache.tags.occ_blocks::.cpu.data  1036.230046                       # Average occupied blocks per requestor
system.l3cache.tags.occ_percent::.cpu.inst     0.022521                       # Average percentage of cache occupancy
system.l3cache.tags.occ_percent::.cpu.data     0.031623                       # Average percentage of cache occupancy
system.l3cache.tags.occ_percent::total       0.054145                       # Average percentage of cache occupancy
system.l3cache.tags.occ_task_id_blocks::1024         2519                       # Occupied blocks per task id
system.l3cache.tags.age_task_id_blocks_1024::0           62                       # Occupied blocks per task id
system.l3cache.tags.age_task_id_blocks_1024::2          315                       # Occupied blocks per task id
system.l3cache.tags.age_task_id_blocks_1024::3          921                       # Occupied blocks per task id
system.l3cache.tags.age_task_id_blocks_1024::4         1221                       # Occupied blocks per task id
system.l3cache.tags.occ_task_id_percent::1024     0.076874                       # Percentage of cache occupancy per task id
system.l3cache.tags.tag_accesses                42823                       # Number of tag accesses
system.l3cache.tags.data_accesses               42823                       # Number of data accesses
system.l3cache.pwrStateResidencyTicks::UNDEFINED  11035205000                       # Cumulative time (in ticks) in various power states
system.l3cache.ReadExReq_misses::.cpu.data         1395                       # number of ReadExReq misses
system.l3cache.ReadExReq_misses::total           1395                       # number of ReadExReq misses
system.l3cache.ReadSharedReq_misses::.cpu.inst          841                       # number of ReadSharedReq misses
system.l3cache.ReadSharedReq_misses::.cpu.data          283                       # number of ReadSharedReq misses
system.l3cache.ReadSharedReq_misses::total         1124                       # number of ReadSharedReq misses
system.l3cache.demand_misses::.cpu.inst           841                       # number of demand (read+write) misses
system.l3cache.demand_misses::.cpu.data          1678                       # number of demand (read+write) misses
system.l3cache.demand_misses::total              2519                       # number of demand (read+write) misses
system.l3cache.overall_misses::.cpu.inst          841                       # number of overall misses
system.l3cache.overall_misses::.cpu.data         1678                       # number of overall misses
system.l3cache.overall_misses::total             2519                       # number of overall misses
system.l3cache.ReadExReq_miss_latency::.cpu.data    102510500                       # number of ReadExReq miss cycles
system.l3cache.ReadExReq_miss_latency::total    102510500                       # number of ReadExReq miss cycles
system.l3cache.ReadSharedReq_miss_latency::.cpu.inst     77013500                       # number of ReadSharedReq miss cycles
system.l3cache.ReadSharedReq_miss_latency::.cpu.data     24294000                       # number of ReadSharedReq miss cycles
system.l3cache.ReadSharedReq_miss_latency::total    101307500                       # number of ReadSharedReq miss cycles
system.l3cache.demand_miss_latency::.cpu.inst     77013500                       # number of demand (read+write) miss cycles
system.l3cache.demand_miss_latency::.cpu.data    126804500                       # number of demand (read+write) miss cycles
system.l3cache.demand_miss_latency::total    203818000                       # number of demand (read+write) miss cycles
system.l3cache.overall_miss_latency::.cpu.inst     77013500                       # number of overall miss cycles
system.l3cache.overall_miss_latency::.cpu.data    126804500                       # number of overall miss cycles
system.l3cache.overall_miss_latency::total    203818000                       # number of overall miss cycles
system.l3cache.ReadExReq_accesses::.cpu.data         1395                       # number of ReadExReq accesses(hits+misses)
system.l3cache.ReadExReq_accesses::total         1395                       # number of ReadExReq accesses(hits+misses)
system.l3cache.ReadSharedReq_accesses::.cpu.inst          841                       # number of ReadSharedReq accesses(hits+misses)
system.l3cache.ReadSharedReq_accesses::.cpu.data          283                       # number of ReadSharedReq accesses(hits+misses)
system.l3cache.ReadSharedReq_accesses::total         1124                       # number of ReadSharedReq accesses(hits+misses)
system.l3cache.demand_accesses::.cpu.inst          841                       # number of demand (read+write) accesses
system.l3cache.demand_accesses::.cpu.data         1678                       # number of demand (read+write) accesses
system.l3cache.demand_accesses::total            2519                       # number of demand (read+write) accesses
system.l3cache.overall_accesses::.cpu.inst          841                       # number of overall (read+write) accesses
system.l3cache.overall_accesses::.cpu.data         1678                       # number of overall (read+write) accesses
system.l3cache.overall_accesses::total           2519                       # number of overall (read+write) accesses
system.l3cache.ReadExReq_miss_rate::.cpu.data            1                       # miss rate for ReadExReq accesses
system.l3cache.ReadExReq_miss_rate::total            1                       # miss rate for ReadExReq accesses
system.l3cache.ReadSharedReq_miss_rate::.cpu.inst            1                       # miss rate for ReadSharedReq accesses
system.l3cache.ReadSharedReq_miss_rate::.cpu.data            1                       # miss rate for ReadSharedReq accesses
system.l3cache.ReadSharedReq_miss_rate::total            1                       # miss rate for ReadSharedReq accesses
system.l3cache.demand_miss_rate::.cpu.inst            1                       # miss rate for demand accesses
system.l3cache.demand_miss_rate::.cpu.data            1                       # miss rate for demand accesses
system.l3cache.demand_miss_rate::total              1                       # miss rate for demand accesses
system.l3cache.overall_miss_rate::.cpu.inst            1                       # miss rate for overall accesses
system.l3cache.overall_miss_rate::.cpu.data            1                       # miss rate for overall accesses
system.l3cache.overall_miss_rate::total             1                       # miss rate for overall accesses
system.l3cache.ReadExReq_avg_miss_latency::.cpu.data 73484.229391                       # average ReadExReq miss latency
system.l3cache.ReadExReq_avg_miss_latency::total 73484.229391                       # average ReadExReq miss latency
system.l3cache.ReadSharedReq_avg_miss_latency::.cpu.inst 91573.721760                       # average ReadSharedReq miss latency
system.l3cache.ReadSharedReq_avg_miss_latency::.cpu.data 85844.522968                       # average ReadSharedReq miss latency
system.l3cache.ReadSharedReq_avg_miss_latency::total 90131.227758                       # average ReadSharedReq miss latency
system.l3cache.demand_avg_miss_latency::.cpu.inst 91573.721760                       # average overall miss latency
system.l3cache.demand_avg_miss_latency::.cpu.data 75568.831943                       # average overall miss latency
system.l3cache.demand_avg_miss_latency::total 80912.266773                       # average overall miss latency
system.l3cache.overall_avg_miss_latency::.cpu.inst 91573.721760                       # average overall miss latency
system.l3cache.overall_avg_miss_latency::.cpu.data 75568.831943                       # average overall miss latency
system.l3cache.overall_avg_miss_latency::total 80912.266773                       # average overall miss latency
system.l3cache.blocked_cycles::no_mshrs             0                       # number of cycles access was blocked
system.l3cache.blocked_cycles::no_targets            0                       # number of cycles access was blocked
system.l3cache.blocked::no_mshrs                    0                       # number of cycles access was blocked
system.l3cache.blocked::no_targets                  0                       # number of cycles access was blocked
system.l3cache.avg_blocked_cycles::no_mshrs          nan                       # average number of cycles each access was blocked
system.l3cache.avg_blocked_cycles::no_targets          nan                       # average number of cycles each access was blocked
system.l3cache.ReadExReq_mshr_misses::.cpu.data         1395                       # number of ReadExReq MSHR misses
system.l3cache.ReadExReq_mshr_misses::total         1395                       # number of ReadExReq MSHR misses
system.l3cache.ReadSharedReq_mshr_misses::.cpu.inst          841                       # number of ReadSharedReq MSHR misses
system.l3cache.ReadSharedReq_mshr_misses::.cpu.data          283                       # number of ReadSharedReq MSHR misses
system.l3cache.ReadSharedReq_mshr_misses::total         1124                       # number of ReadSharedReq MSHR misses
system.l3cache.demand_mshr_misses::.cpu.inst          841                       # number of demand (read+write) MSHR misses
system.l3cache.demand_mshr_misses::.cpu.data         1678                       # number of demand (read+write) MSHR misses
system.l3cache.demand_mshr_misses::total         2519                       # number of demand (read+write) MSHR misses
system.l3cache.overall_mshr_misses::.cpu.inst          841                       # number of overall MSHR misses
system.l3cache.overall_mshr_misses::.cpu.data         1678                       # number of overall MSHR misses
system.l3cache.overall_mshr_misses::total         2519                       # number of overall MSHR misses
system.l3cache.ReadExReq_mshr_miss_latency::.cpu.data     99720500                       # number of ReadExReq MSHR miss cycles
system.l3cache.ReadExReq_mshr_miss_latency::total     99720500                       # number of ReadExReq MSHR miss cycles
system.l3cache.ReadSharedReq_mshr_miss_latency::.cpu.inst     75331500                       # number of ReadSharedReq MSHR miss cycles
system.l3cache.ReadSharedReq_mshr_miss_latency::.cpu.data     23728000                       # number of ReadSharedReq MSHR miss cycles
system.l3cache.ReadSharedReq_mshr_miss_latency::total     99059500                       # number of ReadSharedReq MSHR miss cycles
system.l3cache.demand_mshr_miss_latency::.cpu.inst     75331500                       # number of demand (read+write) MSHR miss cycles
system.l3cache.demand_mshr_miss_latency::.cpu.data    123448500                       # number of demand (read+write) MSHR miss cycles
system.l3cache.demand_mshr_miss_latency::total    198780000                       # number of demand (read+write) MSHR miss cycles
system.l3cache.overall_mshr_miss_latency::.cpu.inst     75331500                       # number of overall MSHR miss cycles
system.l3cache.overall_mshr_miss_latency::.cpu.data    123448500                       # number of overall MSHR miss cycles
system.l3cache.overall_mshr_miss_latency::total    198780000                       # number of overall MSHR miss cycles
system.l3cache.ReadExReq_mshr_miss_rate::.cpu.data            1                       # mshr miss rate for ReadExReq accesses
system.l3cache.ReadExReq_mshr_miss_rate::total            1                       # mshr miss rate for ReadExReq accesses
system.l3cache.ReadSharedReq_mshr_miss_rate::.cpu.inst            1                       # mshr miss rate for ReadSharedReq accesses
system.l3cache.ReadSharedReq_mshr_miss_rate::.cpu.data            1                       # mshr miss rate for ReadSharedReq accesses
system.l3cache.ReadSharedReq_mshr_miss_rate::total            1                       # mshr miss rate for ReadSharedReq accesses
system.l3cache.demand_mshr_miss_rate::.cpu.inst            1                       # mshr miss rate for demand accesses
system.l3cache.demand_mshr_miss_rate::.cpu.data            1                       # mshr miss rate for demand accesses
system.l3cache.demand_mshr_miss_rate::total            1                       # mshr miss rate for demand accesses
system.l3cache.overall_mshr_miss_rate::.cpu.inst            1                       # mshr miss rate for overall accesses
system.l3cache.overall_mshr_miss_rate::.cpu.data            1                       # mshr miss rate for overall accesses
system.l3cache.overall_mshr_miss_rate::total            1                       # mshr miss rate for overall accesses
system.l3cache.ReadExReq_avg_mshr_miss_latency::.cpu.data 71484.229391                       # average ReadExReq mshr miss latency
system.l3cache.ReadExReq_avg_mshr_miss_latency::total 71484.229391                       # average ReadExReq mshr miss latency
system.l3cache.ReadSharedReq_avg_mshr_miss_latency::.cpu.inst 89573.721760                       # average ReadSharedReq mshr miss latency
system.l3cache.ReadSharedReq_avg_mshr_miss_latency::.cpu.data 83844.522968                       # average ReadSharedReq mshr miss latency
system.l3cache.ReadSharedReq_avg_mshr_miss_latency::total 88131.227758                       # average ReadSharedReq mshr miss latency
system.l3cache.demand_avg_mshr_miss_latency::.cpu.inst 89573.721760                       # average overall mshr miss latency
system.l3cache.demand_avg_mshr_miss_latency::.cpu.data 73568.831943                       # average overall mshr miss latency
system.l3cache.demand_avg_mshr_miss_latency::total 78912.266773                       # average overall mshr miss latency
system.l3cache.overall_avg_mshr_miss_latency::.cpu.inst 89573.721760                       # average overall mshr miss latency
system.l3cache.overall_avg_mshr_miss_latency::.cpu.data 73568.831943                       # average overall mshr miss latency
system.l3cache.overall_avg_mshr_miss_latency::total 78912.266773                       # average overall mshr miss latency
system.l3cache.replacements                         0                       # number of replacements
system.membus.snoop_filter.tot_requests          2519                       # Total number of requests made to the snoop filter.
system.membus.snoop_filter.hit_single_requests            0                       # Number of requests hitting in the snoop filter with a single holder of the requested data.
system.membus.snoop_filter.hit_multi_requests            0                       # Number of requests hitting in the snoop filter with multiple (>1) holders of the requested data.
system.membus.snoop_filter.tot_snoops               0                       # Total number of snoops made to the snoop filter.
system.membus.snoop_filter.hit_single_snoops            0                       # Number of snoops hitting in the snoop filter with a single holder of the requested data.
system.membus.snoop_filter.hit_multi_snoops            0                       # Number of snoops hitting in the snoop filter with multiple (>1) holders of the requested data.
system.membus.pwrStateResidencyTicks::UNDEFINED  11035205000                       # Cumulative time (in ticks) in various power states
system.membus.trans_dist::ReadResp               1124                       # Transaction distribution
system.membus.trans_dist::ReadExReq              1395                       # Transaction distribution
system.membus.trans_dist::ReadExResp             1395                       # Transaction distribution
system.membus.trans_dist::ReadSharedReq          1124                       # Transaction distribution
system.membus.pkt_count_system.l3cache.mem_side::system.mem_ctrl.port         5038                       # Packet count per connected master and slave (bytes)
system.membus.pkt_count_system.l3cache.mem_side::total         5038                       # Packet count per connected master and slave (bytes)
system.membus.pkt_count::total                   5038                       # Packet count per connected master and slave (bytes)
system.membus.pkt_size_system.l3cache.mem_side::system.mem_ctrl.port       161216                       # Cumulative packet size per connected master and slave (bytes)
system.membus.pkt_size_system.l3cache.mem_side::total       161216                       # Cumulative packet size per connected master and slave (bytes)
system.membus.pkt_size::total                  161216                       # Cumulative packet size per connected master and slave (bytes)
system.membus.snoops                                0                       # Total snoops (count)
system.membus.snoopTraffic                          0                       # Total snoop traffic (bytes)
system.membus.snoop_fanout::samples              2519                       # Request fanout histogram
system.membus.snoop_fanout::mean                    0                       # Request fanout histogram
system.membus.snoop_fanout::stdev                   0                       # Request fanout histogram
system.membus.snoop_fanout::underflows              0      0.00%      0.00% # Request fanout histogram
system.membus.snoop_fanout::0                    2519    100.00%    100.00% # Request fanout histogram
system.membus.snoop_fanout::1                       0      0.00%    100.00% # Request fanout histogram
system.membus.snoop_fanout::overflows               0      0.00%    100.00% # Request fanout histogram
system.membus.snoop_fanout::min_value               0                       # Request fanout histogram
system.membus.snoop_fanout::max_value               0                       # Request fanout histogram
system.membus.snoop_fanout::total                2519                       # Request fanout histogram
system.membus.reqLayer0.occupancy             1259500                       # Layer occupancy (ticks)
system.membus.reqLayer0.utilization               0.0                       # Layer utilization (%)
system.membus.respLayer0.occupancy            6743500                       # Layer occupancy (ticks)
system.membus.respLayer0.utilization              0.1                       # Layer utilization (%)

---------- End Simulation Statistics   ----------