
---------- Begin Simulation Statistics ----------
sim_seconds                                  0.012114                       # Number of seconds simulated
sim_ticks                                 12113503500                       # Number of ticks simulated
final_tick                                12113503500                       # Number of ticks from beginning of simulation (restored from checkpoints and never reset)
sim_freq                                 1000000000000                       # Frequency of simulated ticks
host_inst_rate                                 289233                       # Simulator instruction rate (inst/s)
host_op_rate                                   496679                       # Simulator op (including micro ops) rate (op/s)
host_tick_rate                              186004325                       # Simulator tick rate (ticks/s)
host_mem_usage                                 660160                       # Number of bytes of host memory used
host_seconds                                    65.12                       # Real time elapsed on the host
sim_insts                                    18836239                       # Number of instructions simulated
sim_ops                                      32346156                       # Number of ops (including micro ops) simulated
system.clk_domain.voltage_domain.voltage            1                       # Voltage in Volts
system.clk_domain.clock                           500                       # Clock period in ticks
system.mem_ctrl.pwrStateResidencyTicks::UNDEFINED  12113503500                       # Cumulative time (in ticks) in various power states
system.mem_ctrl.bytes_read::.cpu.inst           51264                       # Number of bytes read from this memory
system.mem_ctrl.bytes_read::.cpu.data          106880                       # Number of bytes read from this memory
system.mem_ctrl.bytes_read::total              158144                       # Number of bytes read from this memory
system.mem_ctrl.bytes_inst_read::.cpu.inst        51264                       # Number of instructions bytes read from this memory
system.mem_ctrl.bytes_inst_read::total          51264                       # Number of instructions bytes read from this memory
system.mem_ctrl.num_reads::.cpu.inst              801                       # Number of read requests responded to by this memory
system.mem_ctrl.num_reads::.cpu.data             1670                       # Number of read requests responded to by this memory
system.mem_ctrl.num_reads::total                 2471                       # Number of read requests responded to by this memory
system.mem_ctrl.bw_read::.cpu.inst            4231971                       # Total read bandwidth from this memory (bytes/s)
system.mem_ctrl.bw_read::.cpu.data            8823211                       # Total read bandwidth from this memory (bytes/s)
system.mem_ctrl.bw_read::total               13055183                       # Total read bandwidth from this memory (bytes/s)
system.mem_ctrl.bw_inst_read::.cpu.inst       4231971                       # Instruction read bandwidth from this memory (bytes/s)
system.mem_ctrl.bw_inst_read::total           4231971                       # Instruction read bandwidth from this memory (bytes/s)
system.mem_ctrl.bw_total::.cpu.inst           4231971                       # Total bandwidth to/from this memory (bytes/s)
system.mem_ctrl.bw_total::.cpu.data           8823211                       # Total bandwidth to/from this memory (bytes/s)
system.mem_ctrl.bw_total::total              13055183                       # Total bandwidth to/from this memory (bytes/s)
system.mem_ctrl.avgPriority_.cpu.inst::samples       801.00                       # Average QoS priority value for accepted requests
system.mem_ctrl.avgPriority_.cpu.data::samples      1670.00                       # Average QoS priority value for accepted requests
system.mem_ctrl.priorityMinLatency       0.000000018750                       # per QoS priority minimum request to response latency (s)
system.mem_ctrl.priorityMaxLatency       0.000001102750                       # per QoS priority maximum request to response latency (s)
system.mem_ctrl.numReadWriteTurnArounds             0                       # Number of turnarounds from READ to WRITE
system.mem_ctrl.numWriteReadTurnArounds             0                       # Number of turnarounds from WRITE to READ
system.mem_ctrl.numStayReadState                 5652                       # Number of times bus staying in READ state
system.mem_ctrl.numStayWriteState                   0                       # Number of times bus staying in WRITE state
system.mem_ctrl.readReqs                         2471                       # Number of read requests accepted
system.mem_ctrl.writeReqs                           0                       # Number of write requests accepted
system.mem_ctrl.readBursts                       2471                       # Number of DRAM read bursts, including those serviced by the write queue
system.mem_ctrl.writeBursts                         0                       # Number of DRAM write bursts, including those merged in the write queue
system.mem_ctrl.bytesReadDRAM                  158144                       # Total number of bytes read from DRAM
system.mem_ctrl.bytesReadWrQ                        0                       # Total number of bytes read from write queue
system.mem_ctrl.bytesWritten                        0                       # Total number of bytes written to DRAM
system.mem_ctrl.bytesReadSys                   158144                       # Total read bytes from the system interface side
system.mem_ctrl.bytesWrittenSys                     0                       # Total written bytes from the system interface side
system.mem_ctrl.servicedByWrQ                       0                       # Number of DRAM read bursts serviced by the write queue
system.mem_ctrl.mergedWrBursts                      0                       # Number of DRAM write bursts merged with an existing one
system.mem_ctrl.neitherReadNorWriteReqs             0                       # Number of requests that are neither read nor write
system.mem_ctrl.perBankRdBursts::0                277                       # Per bank write bursts
system.mem_ctrl.perBankRdBursts::1                152                       # Per bank write bursts
system.mem_ctrl.perBankRdBursts::2                169                       # Per bank write bursts
system.mem_ctrl.perBankRdBursts::3                143                       # Per bank write bursts
system.mem_ctrl.perBankRdBursts::4                158                       # Per bank write bursts
system.mem_ctrl.perBankRdBursts::5                141                       # Per bank write bursts
system.mem_ctrl.perBankRdBursts::6                200                       # Per bank write bursts
system.mem_ctrl.perBankRdBursts::7                222                       # Per bank write bursts
system.mem_ctrl.perBankRdBursts::8                159                       # Per bank write bursts
system.mem_ctrl.perBankRdBursts::9                182                       # Per bank write bursts
system.mem_ctrl.perBankRdBursts::10               161                       # Per bank write bursts
system.mem_ctrl.perBankRdBursts::11               102                       # Per bank write bursts
system.mem_ctrl.perBankRdBursts::12                68                       # Per bank write bursts
system.mem_ctrl.perBankRdBursts::13                72                       # Per bank write bursts
system.mem_ctrl.perBankRdBursts::14               122                       # Per bank write bursts
system.mem_ctrl.perBankRdBursts::15               143                       # Per bank write bursts
system.mem_ctrl.perBankWrBursts::0                  0                       # Per bank write bursts
system.mem_ctrl.perBankWrBursts::1                  0                       # Per bank write bursts
system.mem_ctrl.perBankWrBursts::2                  0                       # Per bank write bursts
system.mem_ctrl.perBankWrBursts::3                  0                       # Per bank write bursts
system.mem_ctrl.perBankWrBursts::4                  0                       # Per bank write bursts
system.mem_ctrl.perBankWrBursts::5                  0                       # Per bank write bursts
system.mem_ctrl.perBankWrBursts::6                  0                       # Per bank write bursts
system.mem_ctrl.perBankWrBursts::7                  0                       # Per bank write bursts
system.mem_ctrl.perBankWrBursts::8                  0                       # Per bank write bursts
system.mem_ctrl.perBankWrBursts::9                  0                       # Per bank write bursts
system.mem_ctrl.perBankWrBursts::10                 0                       # Per bank write bursts
system.mem_ctrl.perBankWrBursts::11                 0                       # Per bank write bursts
system.mem_ctrl.perBankWrBursts::12                 0                       # Per bank write bursts
system.mem_ctrl.perBankWrBursts::13                 0                       # Per bank write bursts
system.mem_ctrl.perBankWrBursts::14                 0                       # Per bank write bursts
system.mem_ctrl.perBankWrBursts::15                 0                       # Per bank write bursts
system.mem_ctrl.numRdRetry                          0                       # Number of times read queue was full causing retry
system.mem_ctrl.numWrRetry                          0                       # Number of times write queue was full causing retry
system.mem_ctrl.totGap                    12113412000                       # Total gap between requests
system.mem_ctrl.readPktSize::0                      0                       # Read request sizes (log2)
system.mem_ctrl.readPktSize::1                      0                       # Read request sizes (log2)
system.mem_ctrl.readPktSize::2                      0                       # Read request sizes (log2)
system.mem_ctrl.readPktSize::3                      0                       # Read request sizes (log2)
system.mem_ctrl.readPktSize::4                      0                       # Read request sizes (log2)
system.mem_ctrl.readPktSize::5                      0                       # Read request sizes (log2)
system.mem_ctrl.readPktSize::6                   2471                       # Read request sizes (log2)
system.mem_ctrl.writePktSize::0                     0                       # Write request sizes (log2)
system.mem_ctrl.writePktSize::1                     0                       # Write request sizes (log2)
system.mem_ctrl.writePktSize::2                     0                       # Write request sizes (log2)
system.mem_ctrl.writePktSize::3                     0                       # Write request sizes (log2)
system.mem_ctrl.writePktSize::4                     0                       # Write request sizes (log2)
system.mem_ctrl.writePktSize::5                     0                       # Write request sizes (log2)
system.mem_ctrl.writePktSize::6                     0                       # Write request sizes (log2)
system.mem_ctrl.rdQLenPdf::0                     2098                       # What read queue length does an incoming req see
system.mem_ctrl.rdQLenPdf::1                      289                       # What read queue length does an incoming req see
system.mem_ctrl.rdQLenPdf::2                       66                       # What read queue length does an incoming req see
system.mem_ctrl.rdQLenPdf::3                       15                       # What read queue length does an incoming req see
system.mem_ctrl.rdQLenPdf::4                        3                       # What read queue length does an incoming req see
system.mem_ctrl.rdQLenPdf::5                        0                       # What read queue length does an incoming req see
system.mem_ctrl.rdQLenPdf::6                        0                       # What read queue length does an incoming req see
system.mem_ctrl.rdQLenPdf::7                        0                       # What read queue length does an incoming req see
system.mem_ctrl.rdQLenPdf::8                        0                       # What read queue length does an incoming req see
system.mem_ctrl.rdQLenPdf::9                        0                       # What read queue length does an incoming req see
system.mem_ctrl.rdQLenPdf::10                       0                       # What read queue length does an incoming req see
system.mem_ctrl.rdQLenPdf::11                       0                       # What read queue length does an incoming req see
system.mem_ctrl.rdQLenPdf::12                       0                       # What read queue length does an incoming req see
system.mem_ctrl.rdQLenPdf::13                       0                       # What read queue length does an incoming req see
system.mem_ctrl.rdQLenPdf::14                       0                       # What read queue length does an incoming req see
system.mem_ctrl.rdQLenPdf::15                       0                       # What read queue length does an incoming req see
system.mem_ctrl.rdQLenPdf::16                       0                       # What read queue length does an incoming req see
system.mem_ctrl.rdQLenPdf::17                       0                       # What read queue length does an incoming req see
system.mem_ctrl.rdQLenPdf::18                       0                       # What read queue length does an incoming req see
system.mem_ctrl.rdQLenPdf::19                       0                       # What read queue length does an incoming req see
system.mem_ctrl.rdQLenPdf::20                       0                       # What read queue length does an incoming req see
system.mem_ctrl.rdQLenPdf::21                       0                       # What read queue length does an incoming req see
system.mem_ctrl.rdQLenPdf::22                       0                       # What read queue length does an incoming req see
system.mem_ctrl.rdQLenPdf::23                       0                       # What read queue length does an incoming req see
system.mem_ctrl.rdQLenPdf::24                       0                       # What read queue length does an incoming req see
system.mem_ctrl.rdQLenPdf::25                       0                       # What read queue length does an incoming req see
system.mem_ctrl.rdQLenPdf::26                       0                       # What read queue length does an incoming req see
system.mem_ctrl.rdQLenPdf::27                       0                       # What read queue length does an incoming req see
system.mem_ctrl.rdQLenPdf::28                       0                       # What read queue length does an incoming req see
system.mem_ctrl.rdQLenPdf::29                       0                       # What read queue length does an incoming req see
system.mem_ctrl.rdQLenPdf::30                       0                       # What read queue length does an incoming req see
system.mem_ctrl.rdQLenPdf::31                       0                       # What read queue length does an incoming req see
system.mem_ctrl.wrQLenPdf::0                        0                       # What write queue length does an incoming req see
system.mem_ctrl.wrQLenPdf::1                        0                       # What write queue length does an incoming req see
system.mem_ctrl.wrQLenPdf::2                        0                       # What write queue length does an incoming req see
system.mem_ctrl.wrQLenPdf::3                        0                       # What write queue length does an incoming req see
system.mem_ctrl.wrQLenPdf::4                        0                       # What write queue length does an incoming req see
system.mem_ctrl.wrQLenPdf::5                        0                       # What write queue length does an incoming req see
system.mem_ctrl.wrQLenPdf::6                        0                       # What write queue length does an incoming req see
system.mem_ctrl.wrQLenPdf::7                        0                       # What write queue length does an incoming req see
system.mem_ctrl.wrQLenPdf::8                        0                       # What write queue length does an incoming req see
system.mem_ctrl.wrQLenPdf::9                        0                       # What write queue length does an incoming req see
system.mem_ctrl.wrQLenPdf::10                       0                       # What write queue length does an incoming req see
system.mem_ctrl.wrQLenPdf::11                       0                       # What write queue length does an incoming req see
system.mem_ctrl.wrQLenPdf::12                       0                       # What write queue length does an incoming req see
system.mem_ctrl.wrQLenPdf::13                       0                       # What write queue length does an incoming req see
system.mem_ctrl.wrQLenPdf::14                       0                       # What write queue length does an incoming req see
system.mem_ctrl.wrQLenPdf::15                       0                       # What write queue length does an incoming req see
system.mem_ctrl.wrQLenPdf::16                       0                       # What write queue length does an incoming req see
system.mem_ctrl.wrQLenPdf::17                       0                       # What write queue length does an incoming req see
system.mem_ctrl.wrQLenPdf::18                       0                       # What write queue length does an incoming req see
system.mem_ctrl.wrQLenPdf::19                       0                       # What write queue length does an incoming req see
system.mem_ctrl.wrQLenPdf::20                       0                       # What write queue length does an incoming req see
system.mem_ctrl.wrQLenPdf::21                       0                       # What write queue length does an incoming req see
system.mem_ctrl.wrQLenPdf::22                       0                       # What write queue length does an incoming req see
system.mem_ctrl.wrQLenPdf::23                       0                       # What write queue length does an incoming req see
system.mem_ctrl.wrQLenPdf::24                       0                       # What write queue length does an incoming req see
system.mem_ctrl.wrQLenPdf::25                       0                       # What write queue length does an incoming req see
system.mem_ctrl.wrQLenPdf::26                       0                       # What write queue length does an incoming req see
system.mem_ctrl.wrQLenPdf::27                       0                       # What write queue length does an incoming req see
system.mem_ctrl.wrQLenPdf::28                       0                       # What write queue length does an incoming req see
system.mem_ctrl.wrQLenPdf::29                       0                       # What write queue length does an incoming req see
system.mem_ctrl.wrQLenPdf::30                       0                       # What write queue length does an incoming req see
system.mem_ctrl.wrQLenPdf::31                       0                       # What write queue length does an incoming req see
system.mem_ctrl.wrQLenPdf::32                       0                       # What write queue length does an incoming req see
system.mem_ctrl.wrQLenPdf::33                       0                       # What write queue length does an incoming req see
system.mem_ctrl.wrQLenPdf::34                       0                       # What write queue length does an incoming req see
system.mem_ctrl.wrQLenPdf::35                       0                       # What write queue length does an incoming req see
system.mem_ctrl.wrQLenPdf::36                       0                       # What write queue length does an incoming req see
system.mem_ctrl.wrQLenPdf::37                       0                       # What write queue length does an incoming req see
system.mem_ctrl.wrQLenPdf::38                       0                       # What write queue length does an incoming req see
system.mem_ctrl.wrQLenPdf::39                       0                       # What write queue length does an incoming req see
system.mem_ctrl.wrQLenPdf::40                       0                       # What write queue length does an incoming req see
system.mem_ctrl.wrQLenPdf::41                       0                       # What write queue length does an incoming req see
system.mem_ctrl.wrQLenPdf::42                       0                       # What write queue length does an incoming req see
system.mem_ctrl.wrQLenPdf::43                       0                       # What write queue length does an incoming req see
system.mem_ctrl.wrQLenPdf::44                       0                       # What write queue length does an incoming req see
system.mem_ctrl.wrQLenPdf::45                       0                       # What write queue length does an incoming req see
system.mem_ctrl.wrQLenPdf::46                       0                       # What write queue length does an incoming req see
system.mem_ctrl.wrQLenPdf::47                       0                       # What write queue length does an incoming req see
system.mem_ctrl.wrQLenPdf::48                       0                       # What write queue length does an incoming req see
system.mem_ctrl.wrQLenPdf::49                       0                       # What write queue length does an incoming req see
system.mem_ctrl.wrQLenPdf::50                       0                       # What write queue length does an incoming req see
system.mem_ctrl.wrQLenPdf::51                       0                       # What write queue length does an incoming req see
system.mem_ctrl.wrQLenPdf::52                       0                       # What write queue length does an incoming req see
system.mem_ctrl.wrQLenPdf::53                       0                       # What write queue length does an incoming req see
system.mem_ctrl.wrQLenPdf::54                       0                       # What write queue length does an incoming req see
system.mem_ctrl.wrQLenPdf::55                       0                       # What write queue length does an incoming req see
system.mem_ctrl.wrQLenPdf::56                       0                       # What write queue length does an incoming req see
system.mem_ctrl.wrQLenPdf::57                       0                       # What write queue length does an incoming req see
system.mem_ctrl.wrQLenPdf::58                       0                       # What write queue length does an incoming req see
system.mem_ctrl.wrQLenPdf::59                       0                       # What write queue length does an incoming req see
system.mem_ctrl.wrQLenPdf::60                       0                       # What write queue length does an incoming req see
system.mem_ctrl.wrQLenPdf::61                       0                       # What write queue length does an incoming req see
system.mem_ctrl.wrQLenPdf::62                       0                       # What write queue length does an incoming req see
system.mem_ctrl.wrQLenPdf::63                       0                       # What write queue length does an incoming req see
system.mem_ctrl.bytesPerActivate::samples          949                       # Bytes accessed per row activation
system.mem_ctrl.bytesPerActivate::mean     164.687039                       # Bytes accessed per row activation
system.mem_ctrl.bytesPerActivate::gmean    100.581658                       # Bytes accessed per row activation
system.mem_ctrl.bytesPerActivate::stdev    240.942488                       # Bytes accessed per row activation
system.mem_ctrl.bytesPerActivate::0-127           656     69.13%     69.13% # Bytes accessed per row activation
system.mem_ctrl.bytesPerActivate::128-255          159     16.75%     85.88% # Bytes accessed per row activation
system.mem_ctrl.bytesPerActivate::256-383           31      3.27%     89.15% # Bytes accessed per row activation
system.mem_ctrl.bytesPerActivate::384-511           19      2.00%     91.15% # Bytes accessed per row activation
system.mem_ctrl.bytesPerActivate::512-639           13      1.37%     92.52% # Bytes accessed per row activation
system.mem_ctrl.bytesPerActivate::640-767            6      0.63%     93.15% # Bytes accessed per row activation
system.mem_ctrl.bytesPerActivate::768-895           12      1.26%     94.42% # Bytes accessed per row activation
system.mem_ctrl.bytesPerActivate::896-1023            3      0.32%     94.73% # Bytes accessed per row activation
system.mem_ctrl.bytesPerActivate::1024-1151           50      5.27%    100.00% # Bytes accessed per row activation
system.mem_ctrl.bytesPerActivate::total           949                       # Bytes accessed per row activation
system.mem_ctrl.masterReadBytes::.cpu.inst        51264                       # Per-master bytes read from memory
system.mem_ctrl.masterReadBytes::.cpu.data       106880                       # Per-master bytes read from memory
system.mem_ctrl.masterReadRate::.cpu.inst 4231971.369802303612                       # Per-master bytes read from memory rate (Bytes/sec)
system.mem_ctrl.masterReadRate::.cpu.data 8823211.220436763018                       # Per-master bytes read from memory rate (Bytes/sec)
system.mem_ctrl.masterReadAccesses::.cpu.inst          801                       # Per-master read serviced memory accesses
system.mem_ctrl.masterReadAccesses::.cpu.data         1670                       # Per-master read serviced memory accesses
system.mem_ctrl.masterReadTotalLat::.cpu.inst     40933750                       # Per-master read total memory access latency
system.mem_ctrl.masterReadTotalLat::.cpu.data    113286000                       # Per-master read total memory access latency
system.mem_ctrl.masterReadAvgLat::.cpu.inst     51103.31                       # Per-master read average memory access latency
system.mem_ctrl.masterReadAvgLat::.cpu.data     67835.93                       # Per-master read average memory access latency
system.mem_ctrl.totQLat                     107888500                       # Total ticks spent queuing
system.mem_ctrl.totMemAccLat                154219750                       # Total ticks spent from burst creation until serviced by the DRAM
system.mem_ctrl.totBusLat                    12355000                       # Total ticks spent in databus transfers
system.mem_ctrl.avgQLat                      43661.88                       # Average queueing delay per DRAM burst
system.mem_ctrl.avgBusLat                     5000.00                       # Average bus latency per DRAM burst
system.mem_ctrl.avgMemAccLat                 62411.88                       # Average memory access latency per DRAM burst
system.mem_ctrl.avgRdBW                         13.06                       # Average DRAM read bandwidth in MiByte/s
system.mem_ctrl.avgWrBW                          0.00                       # Average achieved write bandwidth in MiByte/s
system.mem_ctrl.avgRdBWSys                      13.06                       # Average system read bandwidth in MiByte/s
system.mem_ctrl.avgWrBWSys                       0.00                       # Average system write bandwidth in MiByte/s
system.mem_ctrl.peakBW                       12800.00                       # Theoretical peak bandwidth in MiByte/s
system.mem_ctrl.busUtil                          0.10                       # Data bus utilization in percentage
system.mem_ctrl.busUtilRead                      0.10                       # Data bus utilization in percentage for reads
system.mem_ctrl.busUtilWrite                     0.00                       # Data bus utilization in percentage for writes
system.mem_ctrl.avgRdQLen                        1.05                       # Average read queue length when enqueuing
system.mem_ctrl.avgWrQLen                        0.00                       # Average write queue length when enqueuing
system.mem_ctrl.readRowHits                      1515                       # Number of row buffer hits during reads
system.mem_ctrl.writeRowHits                        0                       # Number of row buffer hits during writes
system.mem_ctrl.readRowHitRate                  61.31                       # Row buffer hit rate for reads
system.mem_ctrl.writeRowHitRate                   nan                       # Row buffer hit rate for writes
system.mem_ctrl.avgGap                     4902230.68                       # Average gap between requests
system.mem_ctrl.pageHitRate                     61.31                       # Row buffer hit rate, read and write combined
system.mem_ctrl_0.actEnergy                   5162220                       # Energy for activate commands per rank (pJ)
system.mem_ctrl_0.preEnergy                   2724810                       # Energy for precharge commands per rank (pJ)
system.mem_ctrl_0.readEnergy                 10438680                       # Energy for read commands per rank (pJ)
system.mem_ctrl_0.writeEnergy                       0                       # Energy for write commands per rank (pJ)
system.mem_ctrl_0.refreshEnergy          395828160.000000                       # Energy for refresh commands per rank (pJ)
system.mem_ctrl_0.actBackEnergy              93247440                       # Energy for active background per rank (pJ)
system.mem_ctrl_0.preBackEnergy               9804480                       # Energy for precharge background per rank (pJ)
system.mem_ctrl_0.actPowerDownEnergy       1579810860                       # Energy for active power-down per rank (pJ)
system.mem_ctrl_0.prePowerDownEnergy        510116640                       # Energy for precharge power-down per rank (pJ)
system.mem_ctrl_0.selfRefreshEnergy        1709464560                       # Energy for self refresh per rank (pJ)
system.mem_ctrl_0.totalEnergy              4316597850                       # Total energy per rank (pJ)
system.mem_ctrl_0.averagePower             356.345945                       # Core power per rank (mW)
system.mem_ctrl_0.totalIdleTime           11883631500                       # Total Idle time Per DRAM Rank
system.mem_ctrl_0.memoryStateTime::IDLE       7746500                       # Time in different power states
system.mem_ctrl_0.memoryStateTime::REF      167440000                       # Time in different power states
system.mem_ctrl_0.memoryStateTime::SREF    7090556000                       # Time in different power states
system.mem_ctrl_0.memoryStateTime::PRE_PDN   1328499750                       # Time in different power states
system.mem_ctrl_0.memoryStateTime::ACT       54637250                       # Time in different power states
system.mem_ctrl_0.memoryStateTime::ACT_PDN   3464624000                       # Time in different power states
system.mem_ctrl_1.actEnergy                   1663620                       # Energy for activate commands per rank (pJ)
system.mem_ctrl_1.preEnergy                    876645                       # Energy for precharge commands per rank (pJ)
system.mem_ctrl_1.readEnergy                  7204260                       # Energy for read commands per rank (pJ)
system.mem_ctrl_1.writeEnergy                       0                       # Energy for write commands per rank (pJ)
system.mem_ctrl_1.refreshEnergy          59620080.000000                       # Energy for refresh commands per rank (pJ)
system.mem_ctrl_1.actBackEnergy              22729890                       # Energy for active background per rank (pJ)
system.mem_ctrl_1.preBackEnergy               3354720                       # Energy for precharge background per rank (pJ)
system.mem_ctrl_1.actPowerDownEnergy        216796080                       # Energy for active power-down per rank (pJ)
system.mem_ctrl_1.prePowerDownEnergy         88306080                       # Energy for precharge power-down per rank (pJ)
system.mem_ctrl_1.selfRefreshEnergy        2734931400                       # Energy for self refresh per rank (pJ)
system.mem_ctrl_1.totalEnergy              3135543915                       # Total energy per rank (pJ)
system.mem_ctrl_1.averagePower             258.846990                       # Core power per rank (mW)
system.mem_ctrl_1.totalIdleTime           12054588750                       # Total Idle time Per DRAM Rank
system.mem_ctrl_1.memoryStateTime::IDLE       6166500                       # Time in different power states
system.mem_ctrl_1.memoryStateTime::REF       25220000                       # Time in different power states
system.mem_ctrl_1.memoryStateTime::SREF   11349391750                       # Time in different power states
system.mem_ctrl_1.memoryStateTime::PRE_PDN    229956000                       # Time in different power states
system.mem_ctrl_1.memoryStateTime::ACT       27292000                       # Time in different power states
system.mem_ctrl_1.memoryStateTime::ACT_PDN    475477250                       # Time in different power states
system.pwrStateResidencyTicks::UNDEFINED  12113503500                       # Cumulative time (in ticks) in various power states
system.cpu.branchPred.lookups                 4223510                       # Number of BP lookups
system.cpu.branchPred.condPredicted           4223510                       # Number of conditional branches predicted
system.cpu.branchPred.condIncorrect            219306                       # Number of conditional branches incorrect
system.cpu.branchPred.BTBLookups              3555818                       # Number of BTB lookups
system.cpu.branchPred.BTBHits                       0                       # Number of BTB hits
system.cpu.branchPred.BTBCorrect                    0                       # Number of correct BTB predictions (this stat may not work properly.
system.cpu.branchPred.BTBHitPct              0.000000                       # BTB Hit Percentage
system.cpu.branchPred.usedRAS                  180669                       # Number of times the RAS was used to get a target.
system.cpu.branchPred.RASInCorrect              21738                       # Number of incorrect RAS predictions.
system.cpu.branchPred.indirectLookups         3555818                       # Number of indirect predictor lookups.
system.cpu.branchPred.indirectHits            1689324                       # Number of indirect target hits.
system.cpu.branchPred.indirectMisses          1866494                       # Number of indirect misses.
system.cpu.branchPredindirectMispredicted       102223                       # Number of mispredicted indirect branches.
system.cpu.dtb.walker.pwrStateResidencyTicks::UNDEFINED  12113503500                       # Cumulative time (in ticks) in various power states
system.cpu.dtb.rdAccesses                     7210916                       # TLB accesses on read requests
system.cpu.dtb.wrAccesses                     2644066                       # TLB accesses on write requests
system.cpu.dtb.rdMisses                          2019                       # TLB misses on read requests
system.cpu.dtb.wrMisses                            76                       # TLB misses on write requests
system.cpu.apic_clk_domain.clock                 8000                       # Clock period in ticks
system.cpu.interrupts.pwrStateResidencyTicks::UNDEFINED  12113503500                       # Cumulative time (in ticks) in various power states
system.cpu.itb.walker.pwrStateResidencyTicks::UNDEFINED  12113503500                       # Cumulative time (in ticks) in various power states
system.cpu.itb.rdAccesses                           0                       # TLB accesses on read requests
system.cpu.itb.wrAccesses                     3386815                       # TLB accesses on write requests
system.cpu.itb.rdMisses                             0                       # TLB misses on read requests
system.cpu.itb.wrMisses                           175                       # TLB misses on write requests
system.cpu.workload.numSyscalls                    23                       # Number of system calls
system.cpu.pwrStateResidencyTicks::ON     12113503500                       # Cumulative time (in ticks) in various power states
system.cpu.numCycles                         24227008                       # number of cpu cycles simulated
system.cpu.numWorkItemsStarted                      0                       # number of work items this cpu started
system.cpu.numWorkItemsCompleted                    0                       # number of work items this cpu completed
system.cpu.fetch.icacheStallCycles             215869                       # Number of cycles fetch is stalled on an Icache miss
system.cpu.fetch.Insts                       25320270                       # Number of instructions fetch has processed
system.cpu.fetch.Branches                     4223510                       # Number of branches that fetch encountered
system.cpu.fetch.predictedBranches            1869993                       # Number of branches that fetch has predicted taken
system.cpu.fetch.Cycles                      23748512                       # Number of cycles fetch has run and was not squashing or blocked
system.cpu.fetch.SquashCycles                  439852                       # Number of cycles fetch has spent squashing
system.cpu.fetch.MiscStallCycles                   68                       # Number of cycles fetch has spent waiting on interrupts, or bad addresses, or out of MSHRs
system.cpu.fetch.PendingTrapStallCycles          1018                       # Number of stall cycles due to pending traps
system.cpu.fetch.PendingQuiesceStallCycles           19                       # Number of stall cycles due to pending quiesce instructions
system.cpu.fetch.CacheLines                   3386700                       # Number of cache lines fetched
system.cpu.fetch.IcacheSquashes                   504                       # Number of outstanding Icache misses that were squashed
system.cpu.fetch.rateDist::samples           24185412                       # Number of instructions fetched each cycle (Total)
system.cpu.fetch.rateDist::mean              1.759741                       # Number of instructions fetched each cycle (Total)
system.cpu.fetch.rateDist::stdev             0.605480                       # Number of instructions fetched each cycle (Total)
system.cpu.fetch.rateDist::underflows               0      0.00%      0.00% # Number of instructions fetched each cycle (Total)
system.cpu.fetch.rateDist::0                  2225922      9.20%      9.20% # Number of instructions fetched each cycle (Total)
system.cpu.fetch.rateDist::1                  1358909      5.62%     14.82% # Number of instructions fetched each cycle (Total)
system.cpu.fetch.rateDist::2                 20600581     85.18%    100.00% # Number of instructions fetched each cycle (Total)
system.cpu.fetch.rateDist::overflows                0      0.00%    100.00% # Number of instructions fetched each cycle (Total)
system.cpu.fetch.rateDist::min_value                0                       # Number of instructions fetched each cycle (Total)
system.cpu.fetch.rateDist::max_value                2                       # Number of instructions fetched each cycle (Total)
system.cpu.fetch.rateDist::total             24185412                       # Number of instructions fetched each cycle (Total)
system.cpu.fetch.branchRate                  0.174331                       # Number of branch fetches per cycle
system.cpu.fetch.rate                        1.045126                       # Number of inst fetches per cycle
system.cpu.decode.IdleCycles                  1334029                       # Number of cycles decode is idle
system.cpu.decode.BlockedCycles               1898412                       # Number of cycles decode is blocked
system.cpu.decode.RunCycles                  19907524                       # Number of cycles decode is running
system.cpu.decode.UnblockCycles                825521                       # Number of cycles decode is unblocking
system.cpu.decode.SquashCycles                 219926                       # Number of cycles decode is squashing
system.cpu.decode.DecodedInsts               39867293                       # Number of instructions handled by decode
system.cpu.decode.SquashedInsts                765940                       # Number of squashed instructions handled by decode
system.cpu.rename.SquashCycles                 219926                       # Number of cycles rename is squashing
system.cpu.rename.IdleCycles                  2367948                       # Number of cycles rename is idle
system.cpu.rename.BlockCycles                  682716                       # Number of cycles rename is blocking
system.cpu.rename.serializeStallCycles           1726                       # count of cycles rename stalled for serializing inst
system.cpu.rename.RunCycles                  19657017                       # Number of cycles rename is running
system.cpu.rename.UnblockCycles               1256079                       # Number of cycles rename is unblocking
system.cpu.rename.RenamedInsts               39104091                       # Number of instructions processed by rename
system.cpu.rename.SquashedInsts                369714                       # Number of squashed instructions processed by rename
system.cpu.rename.ROBFullEvents                    31                       # Number of times rename has blocked due to ROB full
system.cpu.rename.IQFullEvents                 317637                       # Number of times rename has blocked due to IQ full
system.cpu.rename.LQFullEvents                 192233                       # Number of times rename has blocked due to LQ full
system.cpu.rename.SQFullEvents                 377664                       # Number of times rename has blocked due to SQ full
system.cpu.rename.FullRegisterEvents              783                       # Number of times there has been no free registers
system.cpu.rename.RenamedOperands            44947558                       # Number of destination operands rename has renamed
system.cpu.rename.RenameLookups              99090762                       # Number of register rename lookups that rename has made
system.cpu.rename.int_rename_lookups         61612128                       # Number of integer rename lookups
system.cpu.rename.fp_rename_lookups             44226                       # Number of floating rename lookups
system.cpu.rename.CommittedMaps              37258541                       # Number of HB maps that are committed
system.cpu.rename.UndoneMaps                  7689017                       # Number of HB maps that are undone due to squashing
system.cpu.rename.serializingInsts                 42                       # count of serializing insts renamed
system.cpu.rename.tempSerializingInsts             39                       # count of temporary serializing insts renamed
system.cpu.rename.skidInsts                   1236798                       # count of insts added to the skid buffer
system.cpu.memDep0.insertedLoads              8011085                       # Number of loads inserted to the mem dependence unit.
system.cpu.memDep0.insertedStores             2951602                       # Number of stores inserted to the mem dependence unit.
system.cpu.memDep0.conflictingLoads           1995099                       # Number of conflicting loads.
system.cpu.memDep0.conflictingStores           481832                       # Number of conflicting stores.
system.cpu.iq.iqInstsAdded                   38361509                       # Number of instructions added to the IQ (excludes non-spec)
system.cpu.iq.iqNonSpecInstsAdded                1085                       # Number of non-speculative instructions added to the IQ
system.cpu.iq.iqInstsIssued                  36001626                       # Number of instructions issued
system.cpu.iq.iqSquashedInstsIssued            181341                       # Number of squashed instructions issued
system.cpu.iq.iqSquashedInstsExamined         6016437                       # Number of squashed instructions iterated over during squash; mainly for profiling
system.cpu.iq.iqSquashedOperandsExamined      8329337                       # Number of squashed operands that are examined and possibly removed from graph
system.cpu.iq.iqSquashedNonSpecRemoved           1062                       # Number of squashed non-spec instructions that were removed
system.cpu.iq.issued_per_cycle::samples      24185412                       # Number of insts issued each cycle
system.cpu.iq.issued_per_cycle::mean         1.488568                       # Number of insts issued each cycle
system.cpu.iq.issued_per_cycle::stdev        0.732523                       # Number of insts issued each cycle
system.cpu.iq.issued_per_cycle::underflows            0      0.00%      0.00% # Number of insts issued each cycle
system.cpu.iq.issued_per_cycle::0             3467235     14.34%     14.34% # Number of insts issued each cycle
system.cpu.iq.issued_per_cycle::1             5434728     22.47%     36.81% # Number of insts issued each cycle
system.cpu.iq.issued_per_cycle::2            15283449     63.19%    100.00% # Number of insts issued each cycle
system.cpu.iq.issued_per_cycle::overflows            0      0.00%    100.00% # Number of insts issued each cycle
system.cpu.iq.issued_per_cycle::min_value            0                       # Number of insts issued each cycle
system.cpu.iq.issued_per_cycle::max_value            2                       # Number of insts issued each cycle
system.cpu.iq.issued_per_cycle::total        24185412                       # Number of insts issued each cycle
system.cpu.iq.fu_full::No_OpClass                   0      0.00%      0.00% # attempts to use FU when none available
system.cpu.iq.fu_full::IntAlu                       0      0.00%      0.00% # attempts to use FU when none available
system.cpu.iq.fu_full::IntMult                      0      0.00%      0.00% # attempts to use FU when none available
system.cpu.iq.fu_full::IntDiv                       0      0.00%      0.00% # attempts to use FU when none available
system.cpu.iq.fu_full::FloatAdd                     0      0.00%      0.00% # attempts to use FU when none available
system.cpu.iq.fu_full::FloatCmp                     0      0.00%      0.00% # attempts to use FU when none available
system.cpu.iq.fu_full::FloatCvt                     0      0.00%      0.00% # attempts to use FU when none available
system.cpu.iq.fu_full::FloatMult                    0      0.00%      0.00% # attempts to use FU when none available
system.cpu.iq.fu_full::FloatMultAcc                 0      0.00%      0.00% # attempts to use FU when none available
system.cpu.iq.fu_full::FloatDiv                     0      0.00%      0.00% # attempts to use FU when none available
system.cpu.iq.fu_full::FloatMisc                    0      0.00%      0.00% # attempts to use FU when none available
system.cpu.iq.fu_full::FloatSqrt                    0      0.00%      0.00% # attempts to use FU when none available
system.cpu.iq.fu_full::SimdAdd                    247      0.01%      0.01% # attempts to use FU when none available
system.cpu.iq.fu_full::SimdAddAcc                   0      0.00%      0.01% # attempts to use FU when none available
system.cpu.iq.fu_full::SimdAlu                     65      0.00%      0.01% # attempts to use FU when none available
system.cpu.iq.fu_full::SimdCmp                      0      0.00%      0.01% # attempts to use FU when none available
system.cpu.iq.fu_full::SimdCvt                     46      0.00%      0.01% # attempts to use FU when none available
system.cpu.iq.fu_full::SimdMisc                   138      0.01%      0.02% # attempts to use FU when none available
system.cpu.iq.fu_full::SimdMult                     0      0.00%      0.02% # attempts to use FU when none available
system.cpu.iq.fu_full::SimdMultAcc                  0      0.00%      0.02% # attempts to use FU when none available
system.cpu.iq.fu_full::SimdShift                  124      0.00%      0.02% # attempts to use FU when none available
system.cpu.iq.fu_full::SimdShiftAcc                 0      0.00%      0.02% # attempts to use FU when none available
system.cpu.iq.fu_full::SimdSqrt                     0      0.00%      0.02% # attempts to use FU when none available
system.cpu.iq.fu_full::SimdFloatAdd                 0      0.00%      0.02% # attempts to use FU when none available
system.cpu.iq.fu_full::SimdFloatAlu                 0      0.00%      0.02% # attempts to use FU when none available
system.cpu.iq.fu_full::SimdFloatCmp                 0      0.00%      0.02% # attempts to use FU when none available
system.cpu.iq.fu_full::SimdFloatCvt                 0      0.00%      0.02% # attempts to use FU when none available
system.cpu.iq.fu_full::SimdFloatDiv                 0      0.00%      0.02% # attempts to use FU when none available
system.cpu.iq.fu_full::SimdFloatMisc                0      0.00%      0.02% # attempts to use FU when none available
system.cpu.iq.fu_full::SimdFloatMult                0      0.00%      0.02% # attempts to use FU when none available
system.cpu.iq.fu_full::SimdFloatMultAcc             0      0.00%      0.02% # attempts to use FU when none available
system.cpu.iq.fu_full::SimdFloatSqrt                0      0.00%      0.02% # attempts to use FU when none available
system.cpu.iq.fu_full::SimdAes                      0      0.00%      0.02% # attempts to use FU when none available
system.cpu.iq.fu_full::SimdAesMix                   0      0.00%      0.02% # attempts to use FU when none available
system.cpu.iq.fu_full::SimdSha1Hash                 0      0.00%      0.02% # attempts to use FU when none available
system.cpu.iq.fu_full::SimdSha1Hash2                0      0.00%      0.02% # attempts to use FU when none available
system.cpu.iq.fu_full::SimdSha256Hash               0      0.00%      0.02% # attempts to use FU when none available
system.cpu.iq.fu_full::SimdSha256Hash2              0      0.00%      0.02% # attempts to use FU when none available
system.cpu.iq.fu_full::SimdShaSigma2                0      0.00%      0.02% # attempts to use FU when none available
system.cpu.iq.fu_full::SimdShaSigma3                0      0.00%      0.02% # attempts to use FU when none available
system.cpu.iq.fu_full::MemRead                2182381     85.88%     85.90% # attempts to use FU when none available
system.cpu.iq.fu_full::MemWrite                358246     14.10%    100.00% # attempts to use FU when none available
system.cpu.iq.fu_full::FloatMemRead                 0      0.00%    100.00% # attempts to use FU when none available
system.cpu.iq.fu_full::FloatMemWrite                0      0.00%    100.00% # attempts to use FU when none available
system.cpu.iq.fu_full::IprAccess                    0      0.00%    100.00% # attempts to use FU when none available
system.cpu.iq.fu_full::InstPrefetch                 0      0.00%    100.00% # attempts to use FU when none available
system.cpu.iq.FU_type_0::No_OpClass             19034      0.05%      0.05% # Type of FU issued
system.cpu.iq.FU_type_0::IntAlu              25878927     71.88%     71.94% # Type of FU issued
system.cpu.iq.FU_type_0::IntMult                58964      0.16%     72.10% # Type of FU issued
system.cpu.iq.FU_type_0::IntDiv                    31      0.00%     72.10% # Type of FU issued
system.cpu.iq.FU_type_0::FloatAdd               10014      0.03%     72.13% # Type of FU issued
system.cpu.iq.FU_type_0::FloatCmp                   0      0.00%     72.13% # Type of FU issued
system.cpu.iq.FU_type_0::FloatCvt                   0      0.00%     72.13% # Type of FU issued
system.cpu.iq.FU_type_0::FloatMult                  0      0.00%     72.13% # Type of FU issued
system.cpu.iq.FU_type_0::FloatMultAcc               0      0.00%     72.13% # Type of FU issued
system.cpu.iq.FU_type_0::FloatDiv                   0      0.00%     72.13% # Type of FU issued
system.cpu.iq.FU_type_0::FloatMisc                  0      0.00%     72.13% # Type of FU issued
system.cpu.iq.FU_type_0::FloatSqrt                  0      0.00%     72.13% # Type of FU issued
system.cpu.iq.FU_type_0::SimdAdd                  375      0.00%     72.13% # Type of FU issued
system.cpu.iq.FU_type_0::SimdAddAcc                 0      0.00%     72.13% # Type of FU issued
system.cpu.iq.FU_type_0::SimdAlu                  104      0.00%     72.13% # Type of FU issued
system.cpu.iq.FU_type_0::SimdCmp                    0      0.00%     72.13% # Type of FU issued
system.cpu.iq.FU_type_0::SimdCvt                  149      0.00%     72.13% # Type of FU issued
system.cpu.iq.FU_type_0::SimdMisc                 258      0.00%     72.13% # Type of FU issued
system.cpu.iq.FU_type_0::SimdMult                   0      0.00%     72.13% # Type of FU issued
system.cpu.iq.FU_type_0::SimdMultAcc                0      0.00%     72.13% # Type of FU issued
system.cpu.iq.FU_type_0::SimdShift                186      0.00%     72.13% # Type of FU issued
system.cpu.iq.FU_type_0::SimdShiftAcc               0      0.00%     72.13% # Type of FU issued
system.cpu.iq.FU_type_0::SimdSqrt                   0      0.00%     72.13% # Type of FU issued
system.cpu.iq.FU_type_0::SimdFloatAdd               0      0.00%     72.13% # Type of FU issued
system.cpu.iq.FU_type_0::SimdFloatAlu               0      0.00%     72.13% # Type of FU issued
system.cpu.iq.FU_type_0::SimdFloatCmp               0      0.00%     72.13% # Type of FU issued
system.cpu.iq.FU_type_0::SimdFloatCvt               0      0.00%     72.13% # Type of FU issued
system.cpu.iq.FU_type_0::SimdFloatDiv               0      0.00%     72.13% # Type of FU issued
system.cpu.iq.FU_type_0::SimdFloatMisc              0      0.00%     72.13% # Type of FU issued
system.cpu.iq.FU_type_0::SimdFloatMult              0      0.00%     72.13% # Type of FU issued
system.cpu.iq.FU_type_0::SimdFloatMultAcc            0      0.00%     72.13% # Type of FU issued
system.cpu.iq.FU_type_0::SimdFloatSqrt              0      0.00%     72.13% # Type of FU issued
system.cpu.iq.FU_type_0::SimdAes                    0      0.00%     72.13% # Type of FU issued
system.cpu.iq.FU_type_0::SimdAesMix                 0      0.00%     72.13% # Type of FU issued
system.cpu.iq.FU_type_0::SimdSha1Hash               0      0.00%     72.13% # Type of FU issued
system.cpu.iq.FU_type_0::SimdSha1Hash2              0      0.00%     72.13% # Type of FU issued
system.cpu.iq.FU_type_0::SimdSha256Hash             0      0.00%     72.13% # Type of FU issued
system.cpu.iq.FU_type_0::SimdSha256Hash2            0      0.00%     72.13% # Type of FU issued
system.cpu.iq.FU_type_0::SimdShaSigma2              0      0.00%     72.13% # Type of FU issued
system.cpu.iq.FU_type_0::SimdShaSigma3              0      0.00%     72.13% # Type of FU issued
system.cpu.iq.FU_type_0::MemRead              7317992     20.33%     92.46% # Type of FU issued
system.cpu.iq.FU_type_0::MemWrite             2635000      7.32%     99.78% # Type of FU issued
system.cpu.iq.FU_type_0::FloatMemRead           40111      0.11%     99.89% # Type of FU issued
system.cpu.iq.FU_type_0::FloatMemWrite          40481      0.11%    100.00% # Type of FU issued
system.cpu.iq.FU_type_0::IprAccess                  0      0.00%    100.00% # Type of FU issued
system.cpu.iq.FU_type_0::InstPrefetch               0      0.00%    100.00% # Type of FU issued
system.cpu.iq.FU_type_0::total               36001626                       # Type of FU issued
system.cpu.iq.rate                           1.486012                       # Inst issue rate
system.cpu.iq.fu_busy_cnt                     2541247                       # FU busy when requested
system.cpu.iq.fu_busy_rate                   0.070587                       # FU busy rate (busy events/executed inst)
system.cpu.iq.int_inst_queue_reads           98726196                       # Number of integer instruction queue reads
system.cpu.iq.int_inst_queue_writes          44287233                       # Number of integer instruction queue writes
system.cpu.iq.int_inst_queue_wakeup_accesses     35123470                       # Number of integer instruction queue wakeup accesses
system.cpu.iq.fp_inst_queue_reads              185056                       # Number of floating instruction queue reads
system.cpu.iq.fp_inst_queue_writes              92395                       # Number of floating instruction queue writes
system.cpu.iq.fp_inst_queue_wakeup_accesses        92172                       # Number of floating instruction queue wakeup accesses
system.cpu.iq.vec_inst_queue_reads                  0                       # Number of vector instruction queue reads
system.cpu.iq.vec_inst_queue_writes                 0                       # Number of vector instruction queue writes
system.cpu.iq.vec_inst_queue_wakeup_accesses            0                       # Number of vector instruction queue wakeup accesses
system.cpu.iq.int_alu_accesses               38431010                       # Number of integer alu accesses
system.cpu.iq.fp_alu_accesses                   92829                       # Number of floating point alu accesses
system.cpu.iq.vec_alu_accesses                      0                       # Number of vector alu accesses
system.cpu.iew.lsq.thread0.forwLoads          1020609                       # Number of loads that had data forwarded from stores
system.cpu.iew.lsq.thread0.invAddrLoads             0                       # Number of loads ignored due to an invalid address
system.cpu.iew.lsq.thread0.squashedLoads      1791189                       # Number of loads squashed
system.cpu.iew.lsq.thread0.ignoredResponses        14288                       # Number of memory responses ignored because the instruction is squashed
system.cpu.iew.lsq.thread0.memOrderViolation          597                       # Number of memory ordering violations
system.cpu.iew.lsq.thread0.squashedStores       471193                       # Number of stores squashed
system.cpu.iew.lsq.thread0.invAddrSwpfs             0                       # Number of software prefetches ignored due to an invalid address
system.cpu.iew.lsq.thread0.blockedLoads             0                       # Number of blocked loads due to partial load-store forwarding
system.cpu.iew.lsq.thread0.rescheduledLoads            2                       # Number of loads that were rescheduled
system.cpu.iew.lsq.thread0.cacheBlocked            47                       # Number of times an access to memory failed due to the cache being blocked
system.cpu.iew.iewIdleCycles                        0                       # Number of cycles IEW is idle
system.cpu.iew.iewSquashCycles                 219926                       # Number of cycles IEW is squashing
system.cpu.iew.iewBlockCycles                  290414                       # Number of cycles IEW is blocking
system.cpu.iew.iewUnblockCycles                 16290                       # Number of cycles IEW is unblocking
system.cpu.iew.iewDispatchedInsts            38362594                       # Number of instructions dispatched to IQ
system.cpu.iew.iewDispSquashedInsts            122785                       # Number of squashed instructions skipped by dispatch
system.cpu.iew.iewDispLoadInsts               8011085                       # Number of dispatched load instructions
system.cpu.iew.iewDispStoreInsts              2951602                       # Number of dispatched store instructions
system.cpu.iew.iewDispNonSpecInsts                401                       # Number of dispatched non-speculative instructions
system.cpu.iew.iewIQFullEvents                    861                       # Number of times the IQ has become full, causing a stall
system.cpu.iew.iewLSQFullEvents                 12983                       # Number of times the LSQ has become full, causing a stall
system.cpu.iew.memOrderViolationEvents            597                       # Number of memory order violations
system.cpu.iew.predictedTakenIncorrect          78434                       # Number of branches that were predicted taken incorrectly
system.cpu.iew.predictedNotTakenIncorrect       161507                       # Number of branches that were predicted not taken incorrectly
system.cpu.iew.branchMispredicts               239941                       # Number of branch mispredicts detected at execute
system.cpu.iew.iewExecutedInsts              35460392                       # Number of executed instructions
system.cpu.iew.iewExecLoadInsts               7210890                       # Number of load instructions executed
system.cpu.iew.iewExecSquashedInsts            541234                       # Number of squashed instructions skipped in execute
system.cpu.iew.exec_swp                             0                       # number of swp insts executed
system.cpu.iew.exec_nop                             0                       # number of nop insts executed
system.cpu.iew.exec_refs                      9854956                       # number of memory reference insts executed
system.cpu.iew.exec_branches                  3566518                       # Number of branches executed
system.cpu.iew.exec_stores                    2644066                       # Number of stores executed
system.cpu.iew.exec_rate                     1.463672                       # Inst execution rate
system.cpu.iew.wb_sent                       35329737                       # cumulative count of insts sent to commit
system.cpu.iew.wb_count                      35215642                       # cumulative count of insts written-back
system.cpu.iew.wb_producers                  27180427                       # num instructions producing a value
system.cpu.iew.wb_consumers                  37038795                       # num instructions consuming a value
system.cpu.iew.wb_rate                       1.453570                       # insts written-back per cycle
system.cpu.iew.wb_fanout                     0.733837                       # average fanout of values written-back
system.cpu.commit.commitSquashedInsts         5645581                       # The number of squashed insts skipped by commit
system.cpu.commit.commitNonSpecStalls              23                       # The number of times commit has been forced to stall to communicate backwards
system.cpu.commit.branchMispredicts            219371                       # The number of times a branch was mispredicted
system.cpu.commit.committed_per_cycle::samples     23722581                       # Number of insts commited each cycle
system.cpu.commit.committed_per_cycle::mean     1.363518                       # Number of insts commited each cycle
system.cpu.commit.committed_per_cycle::stdev     0.865159                       # Number of insts commited each cycle
system.cpu.commit.committed_per_cycle::underflows            0      0.00%      0.00% # Number of insts commited each cycle
system.cpu.commit.committed_per_cycle::0      6133801     25.86%     25.86% # Number of insts commited each cycle
system.cpu.commit.committed_per_cycle::1      2831404     11.94%     37.79% # Number of insts commited each cycle
system.cpu.commit.committed_per_cycle::2     14757376     62.21%    100.00% # Number of insts commited each cycle
system.cpu.commit.committed_per_cycle::overflows            0      0.00%    100.00% # Number of insts commited each cycle
system.cpu.commit.committed_per_cycle::min_value            0                       # Number of insts commited each cycle
system.cpu.commit.committed_per_cycle::max_value            2                       # Number of insts commited each cycle
system.cpu.commit.committed_per_cycle::total     23722581                       # Number of insts commited each cycle
system.cpu.commit.committedInsts             18836239                       # Number of instructions committed
system.cpu.commit.committedOps               32346156                       # Number of ops (including micro ops) committed
system.cpu.commit.swp_count                         0                       # Number of s/w prefetches committed
system.cpu.commit.refs                        8700305                       # Number of memory references committed
system.cpu.commit.loads                       6219896                       # Number of loads committed
system.cpu.commit.membars                           0                       # Number of memory barriers committed
system.cpu.commit.branches                    3419410                       # Number of branches committed
system.cpu.commit.vec_insts                         0                       # Number of committed Vector instructions.
system.cpu.commit.fp_insts                      92099                       # Number of committed floating point instructions.
system.cpu.commit.int_insts                  32294501                       # Number of committed integer instructions.
system.cpu.commit.function_calls               120304                       # Number of function calls committed.
system.cpu.commit.op_class_0::No_OpClass        10140      0.03%      0.03% # Class of committed instruction
system.cpu.commit.op_class_0::IntAlu         23565672     72.85%     72.89% # Class of committed instruction
system.cpu.commit.op_class_0::IntMult           58948      0.18%     73.07% # Class of committed instruction
system.cpu.commit.op_class_0::IntDiv               28      0.00%     73.07% # Class of committed instruction
system.cpu.commit.op_class_0::FloatAdd          10014      0.03%     73.10% # Class of committed instruction
system.cpu.commit.op_class_0::FloatCmp              0      0.00%     73.10% # Class of committed instruction
system.cpu.commit.op_class_0::FloatCvt              0      0.00%     73.10% # Class of committed instruction
system.cpu.commit.op_class_0::FloatMult             0      0.00%     73.10% # Class of committed instruction
system.cpu.commit.op_class_0::FloatMultAcc            0      0.00%     73.10% # Class of committed instruction
system.cpu.commit.op_class_0::FloatDiv              0      0.00%     73.10% # Class of committed instruction
system.cpu.commit.op_class_0::FloatMisc             0      0.00%     73.10% # Class of committed instruction
system.cpu.commit.op_class_0::FloatSqrt             0      0.00%     73.10% # Class of committed instruction
system.cpu.commit.op_class_0::SimdAdd             374      0.00%     73.10% # Class of committed instruction
system.cpu.commit.op_class_0::SimdAddAcc            0      0.00%     73.10% # Class of committed instruction
system.cpu.commit.op_class_0::SimdAlu              94      0.00%     73.10% # Class of committed instruction
system.cpu.commit.op_class_0::SimdCmp               0      0.00%     73.10% # Class of committed instruction
system.cpu.commit.op_class_0::SimdCvt             140      0.00%     73.10% # Class of committed instruction
system.cpu.commit.op_class_0::SimdMisc            255      0.00%     73.10% # Class of committed instruction
system.cpu.commit.op_class_0::SimdMult              0      0.00%     73.10% # Class of committed instruction
system.cpu.commit.op_class_0::SimdMultAcc            0      0.00%     73.10% # Class of committed instruction
system.cpu.commit.op_class_0::SimdShift           186      0.00%     73.10% # Class of committed instruction
system.cpu.commit.op_class_0::SimdShiftAcc            0      0.00%     73.10% # Class of committed instruction
system.cpu.commit.op_class_0::SimdSqrt              0      0.00%     73.10% # Class of committed instruction
system.cpu.commit.op_class_0::SimdFloatAdd            0      0.00%     73.10% # Class of committed instruction
system.cpu.commit.op_class_0::SimdFloatAlu            0      0.00%     73.10% # Class of committed instruction
system.cpu.commit.op_class_0::SimdFloatCmp            0      0.00%     73.10% # Class of committed instruction
system.cpu.commit.op_class_0::SimdFloatCvt            0      0.00%     73.10% # Class of committed instruction
system.cpu.commit.op_class_0::SimdFloatDiv            0      0.00%     73.10% # Class of committed instruction
system.cpu.commit.op_class_0::SimdFloatMisc            0      0.00%     73.10% # Class of committed instruction
system.cpu.commit.op_class_0::SimdFloatMult            0      0.00%     73.10% # Class of committed instruction
system.cpu.commit.op_class_0::SimdFloatMultAcc            0      0.00%     73.10% # Class of committed instruction
system.cpu.commit.op_class_0::SimdFloatSqrt            0      0.00%     73.10% # Class of committed instruction
system.cpu.commit.op_class_0::SimdAes               0      0.00%     73.10% # Class of committed instruction
system.cpu.commit.op_class_0::SimdAesMix            0      0.00%     73.10% # Class of committed instruction
system.cpu.commit.op_class_0::SimdSha1Hash            0      0.00%     73.10% # Class of committed instruction
system.cpu.commit.op_class_0::SimdSha1Hash2            0      0.00%     73.10% # Class of committed instruction
system.cpu.commit.op_class_0::SimdSha256Hash            0      0.00%     73.10% # Class of committed instruction
system.cpu.commit.op_class_0::SimdSha256Hash2            0      0.00%     73.10% # Class of committed instruction
system.cpu.commit.op_class_0::SimdShaSigma2            0      0.00%     73.10% # Class of committed instruction
system.cpu.commit.op_class_0::SimdShaSigma3            0      0.00%     73.10% # Class of committed instruction
system.cpu.commit.op_class_0::MemRead         6179810     19.11%     92.21% # Class of committed instruction
system.cpu.commit.op_class_0::MemWrite        2439984      7.54%     99.75% # Class of committed instruction
system.cpu.commit.op_class_0::FloatMemRead        40086      0.12%     99.88% # Class of committed instruction
system.cpu.commit.op_class_0::FloatMemWrite        40425      0.12%    100.00% # Class of committed instruction
system.cpu.commit.op_class_0::IprAccess             0      0.00%    100.00% # Class of committed instruction
system.cpu.commit.op_class_0::InstPrefetch            0      0.00%    100.00% # Class of committed instruction
system.cpu.commit.op_class_0::total          32346156                       # Class of committed instruction
system.cpu.commit.bw_lim_events              14757376                       # number cycles where commit BW limit reached
system.cpu.rob.rob_reads                     46956942                       # The number of ROB reads
system.cpu.rob.rob_writes                    76447011                       # The number of ROB writes
system.cpu.timesIdled                             466                       # Number of times that the entire CPU went into an idle state and unscheduled itself
system.cpu.idleCycles                           41596                       # Total number of cycles that the CPU has spent unscheduled due to idling
system.cpu.committedInsts                    18836239                       # Number of Instructions Simulated
system.cpu.committedOps                      32346156                       # Number of Ops (including micro ops) Simulated
system.cpu.cpi                               1.286191                       # CPI: Cycles Per Instruction
system.cpu.cpi_total                         1.286191                       # CPI: Total CPI of All Threads
system.cpu.ipc                               0.777489                       # IPC: Instructions Per Cycle
system.cpu.ipc_total                         0.777489                       # IPC: Total IPC of All Threads
system.cpu.int_regfile_reads                 54773133                       # number of integer regfile reads
system.cpu.int_regfile_writes                29051545                       # number of integer regfile writes
system.cpu.fp_regfile_reads                     44098                       # number of floating regfile reads
system.cpu.fp_regfile_writes                    51637                       # number of floating regfile writes
system.cpu.cc_regfile_reads                  16828584                       # number of cc regfile reads
system.cpu.cc_regfile_writes                 11399945                       # number of cc regfile writes
system.cpu.misc_regfile_reads                17278943                       # number of misc regfile reads
system.cpu.dcache.tags.pwrStateResidencyTicks::UNDEFINED  12113503500                       # Cumulative time (in ticks) in various power states
system.cpu.dcache.tags.tagsinuse           127.901134                       # Cycle average of tags in use
system.cpu.dcache.tags.total_refs             8664864                       # Total number of references to valid blocks.
system.cpu.dcache.tags.sampled_refs             14562                       # Sample count of references to valid blocks.
system.cpu.dcache.tags.avg_refs            595.032550                       # Average number of references to valid blocks.
system.cpu.dcache.tags.warmup_cycle            170000                       # Cycle when the warmup percentage was hit.
system.cpu.dcache.tags.occ_blocks::.cpu.data   127.901134                       # Average occupied blocks per requestor
system.cpu.dcache.tags.occ_percent::.cpu.data     0.999228                       # Average percentage of cache occupancy
system.cpu.dcache.tags.occ_percent::total     0.999228                       # Average percentage of cache occupancy
system.cpu.dcache.tags.occ_task_id_blocks::1024          128                       # Occupied blocks per task id
system.cpu.dcache.tags.age_task_id_blocks_1024::0           76                       # Occupied blocks per task id
system.cpu.dcache.tags.age_task_id_blocks_1024::1           50                       # Occupied blocks per task id
system.cpu.dcache.tags.age_task_id_blocks_1024::2            2                       # Occupied blocks per task id
system.cpu.dcache.tags.occ_task_id_percent::1024            1                       # Percentage of cache occupancy per task id
system.cpu.dcache.tags.tag_accesses          69363938                       # Number of tag accesses
system.cpu.dcache.tags.data_accesses         69363938                       # Number of data accesses
system.cpu.dcache.pwrStateResidencyTicks::UNDEFINED  12113503500                       # Cumulative time (in ticks) in various power states
system.cpu.dcache.ReadReq_hits::.cpu.data      6176710                       # number of ReadReq hits
system.cpu.dcache.ReadReq_hits::total         6176710                       # number of ReadReq hits
system.cpu.dcache.WriteReq_hits::.cpu.data      2473592                       # number of WriteReq hits
system.cpu.dcache.WriteReq_hits::total        2473592                       # number of WriteReq hits
system.cpu.dcache.demand_hits::.cpu.data      8650302                       # number of demand (read+write) hits
system.cpu.dcache.demand_hits::total          8650302                       # number of demand (read+write) hits
system.cpu.dcache.overall_hits::.cpu.data      8650302                       # number of overall hits
system.cpu.dcache.overall_hits::total         8650302                       # number of overall hits
system.cpu.dcache.ReadReq_misses::.cpu.data        11553                       # number of ReadReq misses
system.cpu.dcache.ReadReq_misses::total         11553                       # number of ReadReq misses
system.cpu.dcache.WriteReq_misses::.cpu.data         6817                       # number of WriteReq misses
system.cpu.dcache.WriteReq_misses::total         6817                       # number of WriteReq misses
system.cpu.dcache.demand_misses::.cpu.data        18370                       # number of demand (read+write) misses
system.cpu.dcache.demand_misses::total          18370                       # number of demand (read+write) misses
system.cpu.dcache.overall_misses::.cpu.data        18370                       # number of overall misses
system.cpu.dcache.overall_misses::total         18370                       # number of overall misses
system.cpu.dcache.ReadReq_miss_latency::.cpu.data    164391000                       # number of ReadReq miss cycles
system.cpu.dcache.ReadReq_miss_latency::total    164391000                       # number of ReadReq miss cycles
system.cpu.dcache.WriteReq_miss_latency::.cpu.data    238066000                       # number of WriteReq miss cycles
system.cpu.dcache.WriteReq_miss_latency::total    238066000                       # number of WriteReq miss cycles
system.cpu.dcache.demand_miss_latency::.cpu.data    402457000                       # number of demand (read+write) miss cycles
system.cpu.dcache.demand_miss_latency::total    402457000                       # number of demand (read+write) miss cycles
system.cpu.dcache.overall_miss_latency::.cpu.data    402457000                       # number of overall miss cycles
system.cpu.dcache.overall_miss_latency::total    402457000                       # number of overall miss cycles
system.cpu.dcache.ReadReq_accesses::.cpu.data      6188263                       # number of ReadReq accesses(hits+misses)
system.cpu.dcache.ReadReq_accesses::total      6188263                       # number of ReadReq accesses(hits+misses)
system.cpu.dcache.WriteReq_accesses::.cpu.data      2480409                       # number of WriteReq accesses(hits+misses)
system.cpu.dcache.WriteReq_accesses::total      2480409                       # number of WriteReq accesses(hits+misses)
system.cpu.dcache.demand_accesses::.cpu.data      8668672                       # number of demand (read+write) accesses
system.cpu.dcache.demand_accesses::total      8668672                       # number of demand (read+write) accesses
system.cpu.dcache.overall_accesses::.cpu.data      8668672                       # number of overall (read+write) accesses
system.cpu.dcache.overall_accesses::total      8668672                       # number of overall (read+write) accesses
system.cpu.dcache.ReadReq_miss_rate::.cpu.data     0.001867                       # miss rate for ReadReq accesses
system.cpu.dcache.ReadReq_miss_rate::total     0.001867                       # miss rate for ReadReq accesses
system.cpu.dcache.WriteReq_miss_rate::.cpu.data     0.002748                       # miss rate for WriteReq accesses
system.cpu.dcache.WriteReq_miss_rate::total     0.002748                       # miss rate for WriteReq accesses
system.cpu.dcache.demand_miss_rate::.cpu.data     0.002119                       # miss rate for demand accesses
system.cpu.dcache.demand_miss_rate::total     0.002119                       # miss rate for demand accesses
system.cpu.dcache.overall_miss_rate::.cpu.data     0.002119                       # miss rate for overall accesses
system.cpu.dcache.overall_miss_rate::total     0.002119                       # miss rate for overall accesses
system.cpu.dcache.ReadReq_avg_miss_latency::.cpu.data 14229.291093                       # average ReadReq miss latency
system.cpu.dcache.ReadReq_avg_miss_latency::total 14229.291093                       # average ReadReq miss latency
system.cpu.dcache.WriteReq_avg_miss_latency::.cpu.data 34922.399883                       # average WriteReq miss latency
system.cpu.dcache.WriteReq_avg_miss_latency::total 34922.399883                       # average WriteReq miss latency
system.cpu.dcache.demand_avg_miss_latency::.cpu.data 21908.383234                       # average overall miss latency
system.cpu.dcache.demand_avg_miss_latency::total 21908.383234                       # average overall miss latency
[...]
system.l3bus.snoop_fanout::min_value                0                       # Request fanout histogram
system.l3bus.snoop_fanout::max_value                0                       # Request fanout histogram
system.l3bus.snoop_fanout::total                 2471                       # Request fanout histogram
system.l3bus.reqLayer0.occupancy              1237000                       # Layer occupancy (ticks)
system.l3bus.reqLayer0.utilization                0.0                       # Layer utilization (%)
system.l3bus.respLayer0.occupancy             6177500                       # Layer occupancy (ticks)
system.l3bus.respLayer0.utilization               0.1                       # Layer utilization (%)
system.l3cache.tags.pwrStateResidencyTicks::UNDEFINED  12113503500                       # Cumulative time (in ticks) in various power states
system.l3cache.tags.tagsinuse             1725.281230                       # Cycle average of tags in use
system.l3cache.tags.total_refs                   2471                       # Total number of references to valid blocks.
system.l3cache.tags.sampled_refs                 2471                       # Sample count of references to valid blocks.
system.l3cache.tags.avg_refs                        1                       # Average number of references to valid blocks.
system.l3cache.tags.warmup_cycle                76000                       # Cycle when the warmup percentage was hit.
system.l3cache.tags.occ_blocks::.cpu.inst   702.313789                       # Average occupied blocks per requestor
system.l3cache.tags.occ_blocks::.cpu.data  1022.967441                       # Average occupied blocks per requestor
system.l3cache.tags.occ_percent::.cpu.inst     0.021433                       # Average percentage of cache occupancy
system.l3cache.tags.occ_percent::.cpu.data     0.031218                       # Average percentage of cache occupancy
system.l3cache.tags.occ_percent::total       0.052651                       # Average percentage of cache occupancy
system.l3cache.tags.occ_task_id_blocks::1024         2471                       # Occupied blocks per task id
system.l3cache.tags.age_task_id_blocks_1024::0           63                       # Occupied blocks per task id
system.l3cache.tags.age_task_id_blocks_1024::2          314                       # Occupied blocks per task id
system.l3cache.tags.age_task_id_blocks_1024::3          774                       # Occupied blocks per task id
system.l3cache.tags.age_task_id_blocks_1024::4         1320                       # Occupied blocks per task id
system.l3cache.tags.occ_task_id_percent::1024     0.075409                       # Percentage of cache occupancy per task id
system.l3cache.tags.tag_accesses                42007                       # Number of tag accesses
system.l3cache.tags.data_accesses               42007                       # Number of data accesses
system.l3cache.pwrStateResidencyTicks::UNDEFINED  12113503500                       # Cumulative time (in ticks) in various power states
system.l3cache.ReadExReq_misses::.cpu.data         1396                       # number of ReadExReq misses
system.l3cache.ReadExReq_misses::total           1396                       # number of ReadExReq misses
system.l3cache.ReadSharedReq_misses::.cpu.inst          801                       # number of ReadSharedReq misses
system.l3cache.ReadSharedReq_misses::.cpu.data          274                       # number of ReadSharedReq misses
system.l3cache.ReadSharedReq_misses::total         1075                       # number of ReadSharedReq misses
system.l3cache.demand_misses::.cpu.inst           801                       # number of demand (read+write) misses
system.l3cache.demand_misses::.cpu.data          1670                       # number of demand (read+write) misses
system.l3cache.demand_misses::total              2471                       # number of demand (read+write) misses
system.l3cache.overall_misses::.cpu.inst          801                       # number of overall misses
system.l3cache.overall_misses::.cpu.data         1670                       # number of overall misses
system.l3cache.overall_misses::total             2471                       # number of overall misses
system.l3cache.ReadExReq_miss_latency::.cpu.data    151240000                       # number of ReadExReq miss cycles
system.l3cache.ReadExReq_miss_latency::total    151240000                       # number of ReadExReq miss cycles
system.l3cache.ReadSharedReq_miss_latency::.cpu.inst     70743000                       # number of ReadSharedReq miss cycles
system.l3cache.ReadSharedReq_miss_latency::.cpu.data     24100500                       # number of ReadSharedReq miss cycles
system.l3cache.ReadSharedReq_miss_latency::total     94843500                       # number of ReadSharedReq miss cycles
system.l3cache.demand_miss_latency::.cpu.inst     70743000                       # number of demand (read+write) miss cycles
system.l3cache.demand_miss_latency::.cpu.data    175340500                       # number of demand (read+write) miss cycles
system.l3cache.demand_miss_latency::total    246083500                       # number of demand (read+write) miss cycles
system.l3cache.overall_miss_latency::.cpu.inst     70743000                       # number of overall miss cycles
system.l3cache.overall_miss_latency::.cpu.data    175340500                       # number of overall miss cycles
system.l3cache.overall_miss_latency::total    246083500                       # number of overall miss cycles
system.l3cache.ReadExReq_accesses::.cpu.data         1396                       # number of ReadExReq accesses(hits+misses)
system.l3cache.ReadExReq_accesses::total         1396                       # number of ReadExReq accesses(hits+misses)
system.l3cache.ReadSharedReq_accesses::.cpu.inst          801                       # number of ReadSharedReq accesses(hits+misses)
system.l3cache.ReadSharedReq_accesses::.cpu.data          274                       # number of ReadSharedReq accesses(hits+misses)
system.l3cache.ReadSharedReq_accesses::total         1075                       # number of ReadSharedReq accesses(hits+misses)
system.l3cache.demand_accesses::.cpu.inst          801                       # number of demand (read+write) accesses
system.l3cache.demand_accesses::.cpu.data         1670                       # number of demand (read+write) accesses
system.l3cache.demand_accesses::total            2471                       # number of demand (read+write) accesses
system.l3cache.overall_accesses::.cpu.inst          801                       # number of overall (read+write) accesses
system.l3cache.overall_accesses::.cpu.data         1670                       # number of overall (read+write) accesses
system.l3cache.overall_accesses::total           2471                       # number of overall (read+write) accesses
system.l3cache.ReadExReq_miss_rate::.cpu.data            1                       # miss rate for ReadExReq accesses
system.l3cache.ReadExReq_miss_rate::total            1                       # miss rate for ReadExReq accesses
system.l3cache.ReadSharedReq_miss_rate::.cpu.inst            1                       # miss rate for ReadSharedReq accesses
system.l3cache.ReadSharedReq_miss_rate::.cpu.data            1                       # miss rate for ReadSharedReq accesses
system.l3cache.ReadSharedReq_miss_rate::total            1                       # miss rate for ReadSharedReq accesses
system.l3cache.demand_miss_rate::.cpu.inst            1                       # miss rate for demand accesses
system.l3cache.demand_miss_rate::.cpu.data            1                       # miss rate for demand accesses
system.l3cache.demand_miss_rate::total              1                       # miss rate for demand accesses
system.l3cache.overall_miss_rate::.cpu.inst            1                       # miss rate for overall accesses
system.l3cache.overall_miss_rate::.cpu.data            1                       # miss rate for overall accesses
system.l3cache.overall_miss_rate::total             1                       # miss rate for overall accesses
system.l3cache.ReadExReq_avg_miss_latency::.cpu.data 108338.108883                       # average ReadExReq miss latency
system.l3cache.ReadExReq_avg_miss_latency::total 108338.108883                       # average ReadExReq miss latency
system.l3cache.ReadSharedReq_avg_miss_latency::.cpu.inst 88318.352060                       # average ReadSharedReq miss latency
system.l3cache.ReadSharedReq_avg_miss_latency::.cpu.data 87958.029197                       # average ReadSharedReq miss latency
system.l3cache.ReadSharedReq_avg_miss_latency::total 88226.511628                       # average ReadSharedReq miss latency
system.l3cache.demand_avg_miss_latency::.cpu.inst 88318.352060                       # average overall miss latency
system.l3cache.demand_avg_miss_latency::.cpu.data 104994.311377                       # average overall miss latency
system.l3cache.demand_avg_miss_latency::total 99588.628086                       # average overall miss latency
system.l3cache.overall_avg_miss_latency::.cpu.inst 88318.352060                       # average overall miss latency
system.l3cache.overall_avg_miss_latency::.cpu.data 104994.311377                       # average overall miss latency
system.l3cache.overall_avg_miss_latency::total 99588.628086                       # average overall miss latency
system.l3cache.blocked_cycles::no_mshrs             0                       # number of cycles access was blocked
system.l3cache.blocked_cycles::no_targets            0                       # number of cycles access was blocked
system.l3cache.blocked::no_mshrs                    0                       # number of cycles access was blocked
system.l3cache.blocked::no_targets                  0                       # number of cycles access was blocked
system.l3cache.avg_blocked_cycles::no_mshrs          nan                       # average number of cycles each access was blocked
system.l3cache.avg_blocked_cycles::no_targets          nan                       # average number of cycles each access was blocked
system.l3cache.ReadExReq_mshr_misses::.cpu.data         1396                       # number of ReadExReq MSHR misses
system.l3cache.ReadExReq_mshr_misses::total         1396                       # number of ReadExReq MSHR misses
system.l3cache.ReadSharedReq_mshr_misses::.cpu.inst          801                       # number of ReadSharedReq MSHR misses
system.l3cache.ReadSharedReq_mshr_misses::.cpu.data          274                       # number of ReadSharedReq MSHR misses
system.l3cache.ReadSharedReq_mshr_misses::total         1075                       # number of ReadSharedReq MSHR misses
system.l3cache.demand_mshr_misses::.cpu.inst          801                       # number of demand (read+write) MSHR misses
system.l3cache.demand_mshr_misses::.cpu.data         1670                       # number of demand (read+write) MSHR misses
system.l3cache.demand_mshr_misses::total         2471                       # number of demand (read+write) MSHR misses
system.l3cache.overall_mshr_misses::.cpu.inst          801                       # number of overall MSHR misses
system.l3cache.overall_mshr_misses::.cpu.data         1670                       # number of overall MSHR misses
system.l3cache.overall_mshr_misses::total         2471                       # number of overall MSHR misses
system.l3cache.ReadExReq_mshr_miss_latency::.cpu.data    148448000                       # number of ReadExReq MSHR miss cycles
system.l3cache.ReadExReq_mshr_miss_latency::total    148448000                       # number of ReadExReq MSHR miss cycles
system.l3cache.ReadSharedReq_mshr_miss_latency::.cpu.inst     69141000                       # number of ReadSharedReq MSHR miss cycles
system.l3cache.ReadSharedReq_mshr_miss_latency::.cpu.data     23552500                       # number of ReadSharedReq MSHR miss cycles
system.l3cache.ReadSharedReq_mshr_miss_latency::total     92693500                       # number of ReadSharedReq MSHR miss cycles
system.l3cache.demand_mshr_miss_latency::.cpu.inst     69141000                       # number of demand (read+write) MSHR miss cycles
system.l3cache.demand_mshr_miss_latency::.cpu.data    172000500                       # number of demand (read+write) MSHR miss cycles
system.l3cache.demand_mshr_miss_latency::total    241141500                       # number of demand (read+write) MSHR miss cycles
system.l3cache.overall_mshr_miss_latency::.cpu.inst     69141000                       # number of overall MSHR miss cycles
system.l3cache.overall_mshr_miss_latency::.cpu.data    172000500                       # number of overall MSHR miss cycles
system.l3cache.overall_mshr_miss_latency::total    241141500                       # number of overall MSHR miss cycles
system.l3cache.ReadExReq_mshr_miss_rate::.cpu.data            1                       # mshr miss rate for ReadExReq accesses
system.l3cache.ReadExReq_mshr_miss_rate::total            1                       # mshr miss rate for ReadExReq accesses
system.l3cache.ReadSharedReq_mshr_miss_rate::.cpu.inst            1                       # mshr miss rate for ReadSharedReq accesses
system.l3cache.ReadSharedReq_mshr_miss_rate::.cpu.data            1                       # mshr miss rate for ReadSharedReq accesses
system.l3cache.ReadSharedReq_mshr_miss_rate::total            1                       # mshr miss rate for ReadSharedReq accesses
system.l3cache.demand_mshr_miss_rate::.cpu.inst            1                       # mshr miss rate for demand accesses
system.l3cache.demand_mshr_miss_rate::.cpu.data            1                       # mshr miss rate for demand accesses
system.l3cache.demand_mshr_miss_rate::total            1                       # mshr miss rate for demand accesses
system.l3cache.overall_mshr_miss_rate::.cpu.inst            1                       # mshr miss rate for overall accesses
system.l3cache.overall_mshr_miss_rate::.cpu.data            1                       # mshr miss rate for overall accesses
system.l3cache.overall_mshr_miss_rate::total            1                       # mshr miss rate for overall accesses
system.l3cache.ReadExReq_avg_mshr_miss_latency::.cpu.data 106338.108883                       # average ReadExReq mshr miss latency
system.l3cache.ReadExReq_avg_mshr_miss_latency::total 106338.108883                       # average ReadExReq mshr miss latency
system.l3cache.ReadSharedReq_avg_mshr_miss_latency::.cpu.inst 86318.352060                       # average ReadSharedReq mshr miss latency
system.l3cache.ReadSharedReq_avg_mshr_miss_latency::.cpu.data 85958.029197                       # average ReadSharedReq mshr miss latency
system.l3cache.ReadSharedReq_avg_mshr_miss_latency::total 86226.511628                       # average ReadSharedReq mshr miss latency
system.l3cache.demand_avg_mshr_miss_latency::.cpu.inst 86318.352060                       # average overall mshr miss latency
system.l3cache.demand_avg_mshr_miss_latency::.cpu.data 102994.311377                       # average overall mshr miss latency
system.l3cache.demand_avg_mshr_miss_latency::total 97588.628086                       # average overall mshr miss latency
system.l3cache.overall_avg_mshr_miss_latency::.cpu.inst 86318.352060                       # average overall mshr miss latency
system.l3cache.overall_avg_mshr_miss_latency::.cpu.data 102994.311377                       # average overall mshr miss latency
system.l3cache.overall_avg_mshr_miss_latency::total 97588.628086                       # average overall mshr miss latency
system.l3cache.replacements                         0                       # number of replacements
system.membus.snoop_filter.tot_requests          2471                       # Total number of requests made to the snoop filter.
system.membus.snoop_filter.hit_single_requests            0                       # Number of requests hitting in the snoop filter with a single holder of the requested data.
system.membus.snoop_filter.hit_multi_requests            0                       # Number of requests hitting in the snoop filter with multiple (>1) holders of the requested data.
system.membus.snoop_filter.tot_snoops               0                       # Total number of snoops made to the snoop filter.
system.membus.snoop_filter.hit_single_snoops            0                       # Number of snoops hitting in the snoop filter with a single holder of the requested data.
system.membus.snoop_filter.hit_multi_snoops            0                       # Number of snoops hitting in the snoop filter with multiple (>1) holders of the requested data.
system.membus.pwrStateResidencyTicks::UNDEFINED  12113503500                       # Cumulative time (in ticks) in various power states
system.membus.trans_dist::ReadResp               1075                       # Transaction distribution
system.membus.trans_dist::ReadExReq              1396                       # Transaction distribution
system.membus.trans_dist::ReadExResp             1396                       # Transaction distribution
system.membus.trans_dist::ReadSharedReq          1075                       # Transaction distribution
system.membus.pkt_count_system.l3cache.mem_side::system.mem_ctrl.port         4942                       # Packet count per connected master and slave (bytes)
system.membus.pkt_count_system.l3cache.mem_side::total         4942                       # Packet count per connected master and slave (bytes)
system.membus.pkt_count::total                   4942                       # Packet count per connected master and slave (bytes)
system.membus.pkt_size_system.l3cache.mem_side::system.mem_ctrl.port       158144                       # Cumulative packet size per connected master and slave (bytes)
system.membus.pkt_size_system.l3cache.mem_side::total       158144                       # Cumulative packet size per connected master and slave (bytes)
system.membus.pkt_size::total                  158144                       # Cumulative packet size per connected master and slave (bytes)
system.membus.snoops                                0                       # Total snoops (count)
system.membus.snoopTraffic                          0                       # Total snoop traffic (bytes)
system.membus.snoop_fanout::samples              2471                       # Request fanout histogram
system.membus.snoop_fanout::mean                    0                       # Request fanout histogram
system.membus.snoop_fanout::stdev                   0                       # Request fanout histogram
system.membus.snoop_fanout::underflows              0      0.00%      0.00% # Request fanout histogram
system.membus.snoop_fanout::0                    2471    100.00%    100.00% # Request fanout histogram
system.membus.snoop_fanout::1                       0      0.00%    100.00% # Request fanout histogram
system.membus.snoop_fanout::overflows               0      0.00%    100.00% # Request fanout histogram
system.membus.snoop_fanout::min_value               0                       # Request fanout histogram
system.membus.snoop_fanout::max_value               0                       # Request fanout histogram
system.membus.snoop_fanout::total                2471                       # Request fanout histogram
system.membus.reqLayer0.occupancy             1235500                       # Layer occupancy (ticks)
system.membus.reqLayer0.utilization               0.0                       # Layer utilization (%)
system.membus.respLayer0.occupancy            6614250                       # Layer occupancy (ticks)
system.membus.respLayer0.utilization              0.1                       # Layer utilization (%)

---------- End Simulation Statistics   ----------