
---------- Begin Simulation Statistics ----------
sim_seconds                                  0.000043                       # Number of seconds simulated
sim_ticks                                    43465500                       # Number of ticks simulated
final_tick                                   43465500                       # Number of ticks from beginning of simulation (restored from checkpoints and never reset)
sim_freq                                 1000000000000                       # Frequency of simulated ticks
host_inst_rate                                  33208                       # Simulator instruction rate (inst/s)
host_op_rate                                    66990                       # Simulator op (including micro ops) rate (op/s)
host_tick_rate                              187031736                       # Simulator tick rate (ticks/s)
host_mem_usage                                 655540                       # Number of bytes of host memory used
host_seconds                                     0.23                       # Real time elapsed on the host
sim_insts                                        7717                       # Number of instructions simulated
sim_ops                                         15568                       # Number of ops (including micro ops) simulated
system.clk_domain.voltage_domain.voltage            1                       # Voltage in Volts
system.clk_domain.clock                           500                       # Clock period in ticks
system.mem_ctrl.pwrStateResidencyTicks::UNDEFINED     43465500                       # Cumulative time (in ticks) in various power states
system.mem_ctrl.bytes_read::.cpu.inst           34688                       # Number of bytes read from this memory
system.mem_ctrl.bytes_read::.cpu.data           16384                       # Number of bytes read from this memory
system.mem_ctrl.bytes_read::total               51072                       # Number of bytes read from this memory
system.mem_ctrl.bytes_inst_read::.cpu.inst        34688                       # Number of instructions bytes read from this memory
system.mem_ctrl.bytes_inst_read::total          34688                       # Number of instructions bytes read from this memory
system.mem_ctrl.num_reads::.cpu.inst              542                       # Number of read requests responded to by this memory
system.mem_ctrl.num_reads::.cpu.data              256                       # Number of read requests responded to by this memory
system.mem_ctrl.num_reads::total                  798                       # Number of read requests responded to by this memory
system.mem_ctrl.bw_read::.cpu.inst          798058230                       # Total read bandwidth from this memory (bytes/s)
system.mem_ctrl.bw_read::.cpu.data          376942633                       # Total read bandwidth from this memory (bytes/s)
system.mem_ctrl.bw_read::total             1175000863                       # Total read bandwidth from this memory (bytes/s)
system.mem_ctrl.bw_inst_read::.cpu.inst     798058230                       # Instruction read bandwidth from this memory (bytes/s)
system.mem_ctrl.bw_inst_read::total         798058230                       # Instruction read bandwidth from this memory (bytes/s)
system.mem_ctrl.bw_total::.cpu.inst         798058230                       # Total bandwidth to/from this memory (bytes/s)
system.mem_ctrl.bw_total::.cpu.data         376942633                       # Total bandwidth to/from this memory (bytes/s)
system.mem_ctrl.bw_total::total            1175000863                       # Total bandwidth to/from this memory (bytes/s)
system.mem_ctrl.avgPriority_.cpu.inst::samples       542.00                       # Average QoS priority value for accepted requests
system.mem_ctrl.avgPriority_.cpu.data::samples       256.00                       # Average QoS priority value for accepted requests
system.mem_ctrl.priorityMinLatency       0.000000018750                       # per QoS priority minimum request to response latency (s)
system.mem_ctrl.priorityMaxLatency       0.000000593250                       # per QoS priority maximum request to response latency (s)
system.mem_ctrl.numReadWriteTurnArounds             0                       # Number of turnarounds from READ to WRITE
system.mem_ctrl.numWriteReadTurnArounds             0                       # Number of turnarounds from WRITE to READ
system.mem_ctrl.numStayReadState                 1570                       # Number of times bus staying in READ state
system.mem_ctrl.numStayWriteState                   0                       # Number of times bus staying in WRITE state
system.mem_ctrl.readReqs                          798                       # Number of read requests accepted
system.mem_ctrl.writeReqs                           0                       # Number of write requests accepted
system.mem_ctrl.readBursts                        798                       # Number of DRAM read bursts, including those serviced by the write queue
system.mem_ctrl.writeBursts                         0                       # Number of DRAM write bursts, including those merged in the write queue
system.mem_ctrl.bytesReadDRAM                   51072                       # Total number of bytes read from DRAM
system.mem_ctrl.bytesReadWrQ                        0                       # Total number of bytes read from write queue
system.mem_ctrl.bytesWritten                        0                       # Total number of bytes written to DRAM
system.mem_ctrl.bytesReadSys                    51072                       # Total read bytes from the system interface side
system.mem_ctrl.bytesWrittenSys                     0                       # Total written bytes from the system interface side
system.mem_ctrl.servicedByWrQ                       0                       # Number of DRAM read bursts serviced by the write queue
system.mem_ctrl.mergedWrBursts                      0                       # Number of DRAM write bursts merged with an existing one
system.mem_ctrl.neitherReadNorWriteReqs             0                       # Number of requests that are neither read nor write
system.mem_ctrl.perBankRdBursts::0                111                       # Per bank write bursts
system.mem_ctrl.perBankRdBursts::1                 28                       # Per bank write bursts
system.mem_ctrl.perBankRdBursts::2                 31                       # Per bank write bursts
system.mem_ctrl.perBankRdBursts::3                 15                       # Per bank write bursts
system.mem_ctrl.perBankRdBursts::4                 22                       # Per bank write bursts
system.mem_ctrl.perBankRdBursts::5                 13                       # Per bank write bursts
system.mem_ctrl.perBankRdBursts::6                 72                       # Per bank write bursts
system.mem_ctrl.perBankRdBursts::7                 36                       # Per bank write bursts
system.mem_ctrl.perBankRdBursts::8                  4                       # Per bank write bursts
system.mem_ctrl.perBankRdBursts::9                 30                       # Per bank write bursts
system.mem_ctrl.perBankRdBursts::10               114                       # Per bank write bursts
system.mem_ctrl.perBankRdBursts::11                61                       # Per bank write bursts
system.mem_ctrl.perBankRdBursts::12                44                       # Per bank write bursts
system.mem_ctrl.perBankRdBursts::13                65                       # Per bank write bursts
system.mem_ctrl.perBankRdBursts::14                89                       # Per bank write bursts
system.mem_ctrl.perBankRdBursts::15                63                       # Per bank write bursts
system.mem_ctrl.perBankWrBursts::0                  0                       # Per bank write bursts
system.mem_ctrl.perBankWrBursts::1                  0                       # Per bank write bursts
system.mem_ctrl.perBankWrBursts::2                  0                       # Per bank write bursts
system.mem_ctrl.perBankWrBursts::3                  0                       # Per bank write bursts
system.mem_ctrl.perBankWrBursts::4                  0                       # Per bank write bursts
system.mem_ctrl.perBankWrBursts::5                  0                       # Per bank write bursts
system.mem_ctrl.perBankWrBursts::6                  0                       # Per bank write bursts
system.mem_ctrl.perBankWrBursts::7                  0                       # Per bank write bursts
system.mem_ctrl.perBankWrBursts::8                  0                       # Per bank write bursts
system.mem_ctrl.perBankWrBursts::9                  0                       # Per bank write bursts
system.mem_ctrl.perBankWrBursts::10                 0                       # Per bank write bursts
system.mem_ctrl.perBankWrBursts::11                 0                       # Per bank write bursts
system.mem_ctrl.perBankWrBursts::12                 0                       # Per bank write bursts
system.mem_ctrl.perBankWrBursts::13                 0                       # Per bank write bursts
system.mem_ctrl.perBankWrBursts::14                 0                       # Per bank write bursts
system.mem_ctrl.perBankWrBursts::15                 0                       # Per bank write bursts
system.mem_ctrl.numRdRetry                          0                       # Number of times read queue was full causing retry
system.mem_ctrl.numWrRetry                          0                       # Number of times write queue was full causing retry
system.mem_ctrl.totGap                       43373500                       # Total gap between requests
system.mem_ctrl.readPktSize::0                      0                       # Read request sizes (log2)
system.mem_ctrl.readPktSize::1                      0                       # Read request sizes (log2)
system.mem_ctrl.readPktSize::2                      0                       # Read request sizes (log2)
system.mem_ctrl.readPktSize::3                      0                       # Read request sizes (log2)
system.mem_ctrl.readPktSize::4                      0                       # Read request sizes (log2)
system.mem_ctrl.readPktSize::5                      0                       # Read request sizes (log2)
system.mem_ctrl.readPktSize::6                    798                       # Read request sizes (log2)
system.mem_ctrl.writePktSize::0                     0                       # Write request sizes (log2)
system.mem_ctrl.writePktSize::1                     0                       # Write request sizes (log2)
system.mem_ctrl.writePktSize::2                     0                       # Write request sizes (log2)
system.mem_ctrl.writePktSize::3                     0                       # Write request sizes (log2)
system.mem_ctrl.writePktSize::4                     0                       # Write request sizes (log2)
system.mem_ctrl.writePktSize::5                     0                       # Write request sizes (log2)
system.mem_ctrl.writePktSize::6                     0                       # Write request sizes (log2)
system.mem_ctrl.rdQLenPdf::0                      479                       # What read queue length does an incoming req see
system.mem_ctrl.rdQLenPdf::1                      232                       # What read queue length does an incoming req see
system.mem_ctrl.rdQLenPdf::2                       70                       # What read queue length does an incoming req see
system.mem_ctrl.rdQLenPdf::3                       14                       # What read queue length does an incoming req see
system.mem_ctrl.rdQLenPdf::4                        3                       # What read queue length does an incoming req see
system.mem_ctrl.rdQLenPdf::5                        0                       # What read queue length does an incoming req see
system.mem_ctrl.rdQLenPdf::6                        0                       # What read queue length does an incoming req see
system.mem_ctrl.rdQLenPdf::7                        0                       # What read queue length does an incoming req see
system.mem_ctrl.rdQLenPdf::8                        0                       # What read queue length does an incoming req see
system.mem_ctrl.rdQLenPdf::9                        0                       # What read queue length does an incoming req see
system.mem_ctrl.rdQLenPdf::10                       0                       # What read queue length does an incoming req see
system.mem_ctrl.rdQLenPdf::11                       0                       # What read queue length does an incoming req see
system.mem_ctrl.rdQLenPdf::12                       0                       # What read queue length does an incoming req see
system.mem_ctrl.rdQLenPdf::13                       0                       # What read queue length does an incoming req see
system.mem_ctrl.rdQLenPdf::14                       0                       # What read queue length does an incoming req see
system.mem_ctrl.rdQLenPdf::15                       0                       # What read queue length does an incoming req see
system.mem_ctrl.rdQLenPdf::16                       0                       # What read queue length does an incoming req see
system.mem_ctrl.rdQLenPdf::17                       0                       # What read queue length does an incoming req see
system.mem_ctrl.rdQLenPdf::18                       0                       # What read queue length does an incoming req see
system.mem_ctrl.rdQLenPdf::19                       0                       # What read queue length does an incoming req see
system.mem_ctrl.rdQLenPdf::20                       0                       # What read queue length does an incoming req see
system.mem_ctrl.rdQLenPdf::21                       0                       # What read queue length does an incoming req see
system.mem_ctrl.rdQLenPdf::22                       0                       # What read queue length does an incoming req see
system.mem_ctrl.rdQLenPdf::23                       0                       # What read queue length does an incoming req see
system.mem_ctrl.rdQLenPdf::24                       0                       # What read queue length does an incoming req see
system.mem_ctrl.rdQLenPdf::25                       0                       # What read queue length does an incoming req see
system.mem_ctrl.rdQLenPdf::26                       0                       # What read queue length does an incoming req see
system.mem_ctrl.rdQLenPdf::27                       0                       # What read queue length does an incoming req see
system.mem_ctrl.rdQLenPdf::28                       0                       # What read queue length does an incoming req see
system.mem_ctrl.rdQLenPdf::29                       0                       # What read queue length does an incoming req see
system.mem_ctrl.rdQLenPdf::30                       0                       # What read queue length does an incoming req see
system.mem_ctrl.rdQLenPdf::31                       0                       # What read queue length does an incoming req see
system.mem_ctrl.wrQLenPdf::0                        0                       # What write queue length does an incoming req see
system.mem_ctrl.wrQLenPdf::1                        0                       # What write queue length does an incoming req see
system.mem_ctrl.wrQLenPdf::2                        0                       # What write queue length does an incoming req see
system.mem_ctrl.wrQLenPdf::3                        0                       # What write queue length does an incoming req see
system.mem_ctrl.wrQLenPdf::4                        0                       # What write queue length does an incoming req see
system.mem_ctrl.wrQLenPdf::5                        0                       # What write queue length does an incoming req see
system.mem_ctrl.wrQLenPdf::6                        0                       # What write queue length does an incoming req see
system.mem_ctrl.wrQLenPdf::7                        0                       # What write queue length does an incoming req see
system.mem_ctrl.wrQLenPdf::8                        0                       # What write queue length does an incoming req see
system.mem_ctrl.wrQLenPdf::9                        0                       # What write queue length does an incoming req see
system.mem_ctrl.wrQLenPdf::10                       0                       # What write queue length does an incoming req see
system.mem_ctrl.wrQLenPdf::11                       0                       # What write queue length does an incoming req see
system.mem_ctrl.wrQLenPdf::12                       0                       # What write queue length does an incoming req see
system.mem_ctrl.wrQLenPdf::13                       0                       # What write queue length does an incoming req see
system.mem_ctrl.wrQLenPdf::14                       0                       # What write queue length does an incoming req see
system.mem_ctrl.wrQLenPdf::15                       0                       # What write queue length does an incoming req see
system.mem_ctrl.wrQLenPdf::16                       0                       # What write queue length does an incoming req see
system.mem_ctrl.wrQLenPdf::17                       0                       # What write queue length does an incoming req see
system.mem_ctrl.wrQLenPdf::18                       0                       # What write queue length does an incoming req see
system.mem_ctrl.wrQLenPdf::19                       0                       # What write queue length does an incoming req see
system.mem_ctrl.wrQLenPdf::20                       0                       # What write queue length does an incoming req see
system.mem_ctrl.wrQLenPdf::21                       0                       # What write queue length does an incoming req see
system.mem_ctrl.wrQLenPdf::22                       0                       # What write queue length does an incoming req see
system.mem_ctrl.wrQLenPdf::23                       0                       # What write queue length does an incoming req see
system.mem_ctrl.wrQLenPdf::24                       0                       # What write queue length does an incoming req see
system.mem_ctrl.wrQLenPdf::25                       0                       # What write queue length does an incoming req see
system.mem_ctrl.wrQLenPdf::26                       0                       # What write queue length does an incoming req see
system.mem_ctrl.wrQLenPdf::27                       0                       # What write queue length does an incoming req see
system.mem_ctrl.wrQLenPdf::28                       0                       # What write queue length does an incoming req see
system.mem_ctrl.wrQLenPdf::29                       0                       # What write queue length does an incoming req see
system.mem_ctrl.wrQLenPdf::30                       0                       # What write queue length does an incoming req see
system.mem_ctrl.wrQLenPdf::31                       0                       # What write queue length does an incoming req see
system.mem_ctrl.wrQLenPdf::32                       0                       # What write queue length does an incoming req see
system.mem_ctrl.wrQLenPdf::33                       0                       # What write queue length does an incoming req see
system.mem_ctrl.wrQLenPdf::34                       0                       # What write queue length does an incoming req see
system.mem_ctrl.wrQLenPdf::35                       0                       # What write queue length does an incoming req see
system.mem_ctrl.wrQLenPdf::36                       0                       # What write queue length does an incoming req see
system.mem_ctrl.wrQLenPdf::37                       0                       # What write queue length does an incoming req see
system.mem_ctrl.wrQLenPdf::38                       0                       # What write queue length does an incoming req see
system.mem_ctrl.wrQLenPdf::39                       0                       # What write queue length does an incoming req see
system.mem_ctrl.wrQLenPdf::40                       0                       # What write queue length does an incoming req see
system.mem_ctrl.wrQLenPdf::41                       0                       # What write queue length does an incoming req see
system.mem_ctrl.wrQLenPdf::42                       0                       # What write queue length does an incoming req see
system.mem_ctrl.wrQLenPdf::43                       0                       # What write queue length does an incoming req see
system.mem_ctrl.wrQLenPdf::44                       0                       # What write queue length does an incoming req see
system.mem_ctrl.wrQLenPdf::45                       0                       # What write queue length does an incoming req see
system.mem_ctrl.wrQLenPdf::46                       0                       # What write queue length does an incoming req see
system.mem_ctrl.wrQLenPdf::47                       0                       # What write queue length does an incoming req see
system.mem_ctrl.wrQLenPdf::48                       0                       # What write queue length does an incoming req see
system.mem_ctrl.wrQLenPdf::49                       0                       # What write queue length does an incoming req see
system.mem_ctrl.wrQLenPdf::50                       0                       # What write queue length does an incoming req see
system.mem_ctrl.wrQLenPdf::51                       0                       # What write queue length does an incoming req see
system.mem_ctrl.wrQLenPdf::52                       0                       # What write queue length does an incoming req see
system.mem_ctrl.wrQLenPdf::53                       0                       # What write queue length does an incoming req see
system.mem_ctrl.wrQLenPdf::54                       0                       # What write queue length does an incoming req see
system.mem_ctrl.wrQLenPdf::55                       0                       # What write queue length does an incoming req see
system.mem_ctrl.wrQLenPdf::56                       0                       # What write queue length does an incoming req see
system.mem_ctrl.wrQLenPdf::57                       0                       # What write queue length does an incoming req see
system.mem_ctrl.wrQLenPdf::58                       0                       # What write queue length does an incoming req see
system.mem_ctrl.wrQLenPdf::59                       0                       # What write queue length does an incoming req see
system.mem_ctrl.wrQLenPdf::60                       0                       # What write queue length does an incoming req see
system.mem_ctrl.wrQLenPdf::61                       0                       # What write queue length does an incoming req see
system.mem_ctrl.wrQLenPdf::62                       0                       # What write queue length does an incoming req see
system.mem_ctrl.wrQLenPdf::63                       0                       # What write queue length does an incoming req see
system.mem_ctrl.bytesPerActivate::samples          157                       # Bytes accessed per row activation
system.mem_ctrl.bytesPerActivate::mean     313.885350                       # Bytes accessed per row activation
system.mem_ctrl.bytesPerActivate::gmean    204.072637                       # Bytes accessed per row activation
system.mem_ctrl.bytesPerActivate::stdev    290.838068                       # Bytes accessed per row activation
system.mem_ctrl.bytesPerActivate::0-127            44     28.03%     28.03% # Bytes accessed per row activation
system.mem_ctrl.bytesPerActivate::128-255           41     26.11%     54.14% # Bytes accessed per row activation
system.mem_ctrl.bytesPerActivate::256-383           17     10.83%     64.97% # Bytes accessed per row activation
system.mem_ctrl.bytesPerActivate::384-511           21     13.38%     78.34% # Bytes accessed per row activation
system.mem_ctrl.bytesPerActivate::512-639            8      5.10%     83.44% # Bytes accessed per row activation
system.mem_ctrl.bytesPerActivate::640-767            6      3.82%     87.26% # Bytes accessed per row activation
system.mem_ctrl.bytesPerActivate::768-895            5      3.18%     90.45% # Bytes accessed per row activation
system.mem_ctrl.bytesPerActivate::896-1023            6      3.82%     94.27% # Bytes accessed per row activation
system.mem_ctrl.bytesPerActivate::1024-1151            9      5.73%    100.00% # Bytes accessed per row activation
system.mem_ctrl.bytesPerActivate::total           157                       # Bytes accessed per row activation
system.mem_ctrl.masterReadBytes::.cpu.inst        34688                       # Per-master bytes read from memory
system.mem_ctrl.masterReadBytes::.cpu.data        16384                       # Per-master bytes read from memory
system.mem_ctrl.masterReadRate::.cpu.inst 798058230.090531587601                       # Per-master bytes read from memory rate (Bytes/sec)
system.mem_ctrl.masterReadRate::.cpu.data 376942632.662686526775                       # Per-master bytes read from memory rate (Bytes/sec)
system.mem_ctrl.masterReadAccesses::.cpu.inst          542                       # Per-master read serviced memory accesses
system.mem_ctrl.masterReadAccesses::.cpu.data          256                       # Per-master read serviced memory accesses
system.mem_ctrl.masterReadTotalLat::.cpu.inst     18078750                       # Per-master read total memory access latency
system.mem_ctrl.masterReadTotalLat::.cpu.data      8421250                       # Per-master read total memory access latency
system.mem_ctrl.masterReadAvgLat::.cpu.inst     33355.63                       # Per-master read average memory access latency
system.mem_ctrl.masterReadAvgLat::.cpu.data     32895.51                       # Per-master read average memory access latency
system.mem_ctrl.totQLat                      11537500                       # Total ticks spent queuing
system.mem_ctrl.totMemAccLat                 26500000                       # Total ticks spent from burst creation until serviced by the DRAM
system.mem_ctrl.totBusLat                     3990000                       # Total ticks spent in databus transfers
system.mem_ctrl.avgQLat                      14458.02                       # Average queueing delay per DRAM burst
system.mem_ctrl.avgBusLat                     5000.00                       # Average bus latency per DRAM burst
system.mem_ctrl.avgMemAccLat                 33208.02                       # Average memory access latency per DRAM burst
system.mem_ctrl.avgRdBW                       1175.00                       # Average DRAM read bandwidth in MiByte/s
system.mem_ctrl.avgWrBW                          0.00                       # Average achieved write bandwidth in MiByte/s
system.mem_ctrl.avgRdBWSys                    1175.00                       # Average system read bandwidth in MiByte/s
system.mem_ctrl.avgWrBWSys                       0.00                       # Average system write bandwidth in MiByte/s
system.mem_ctrl.peakBW                       12800.00                       # Theoretical peak bandwidth in MiByte/s
system.mem_ctrl.busUtil                          9.18                       # Data bus utilization in percentage
system.mem_ctrl.busUtilRead                      9.18                       # Data bus utilization in percentage for reads
system.mem_ctrl.busUtilWrite                     0.00                       # Data bus utilization in percentage for writes
system.mem_ctrl.avgRdQLen                        1.63                       # Average read queue length when enqueuing
system.mem_ctrl.avgWrQLen                        0.00                       # Average write queue length when enqueuing
system.mem_ctrl.readRowHits                       631                       # Number of row buffer hits during reads
system.mem_ctrl.writeRowHits                        0                       # Number of row buffer hits during writes
system.mem_ctrl.readRowHitRate                  79.07                       # Row buffer hit rate for reads
system.mem_ctrl.writeRowHitRate                   nan                       # Row buffer hit rate for writes
system.mem_ctrl.avgGap                       54352.76                       # Average gap between requests
system.mem_ctrl.pageHitRate                     79.07                       # Row buffer hit rate, read and write combined
system.mem_ctrl_0.actEnergy                    449820                       # Energy for activate commands per rank (pJ)
system.mem_ctrl_0.preEnergy                    220110                       # Energy for precharge commands per rank (pJ)
system.mem_ctrl_0.readEnergy                  2341920                       # Energy for read commands per rank (pJ)
system.mem_ctrl_0.writeEnergy                       0                       # Energy for write commands per rank (pJ)
system.mem_ctrl_0.refreshEnergy          3073200.000000                       # Energy for refresh commands per rank (pJ)
system.mem_ctrl_0.actBackEnergy               4201470                       # Energy for active background per rank (pJ)
system.mem_ctrl_0.preBackEnergy                 69120                       # Energy for precharge background per rank (pJ)
system.mem_ctrl_0.actPowerDownEnergy         14983590                       # Energy for active power-down per rank (pJ)
system.mem_ctrl_0.prePowerDownEnergy           466080                       # Energy for precharge power-down per rank (pJ)
system.mem_ctrl_0.selfRefreshEnergy                 0                       # Energy for self refresh per rank (pJ)
system.mem_ctrl_0.totalEnergy                25805310                       # Total energy per rank (pJ)
system.mem_ctrl_0.averagePower             593.696380                       # Core power per rank (mW)
system.mem_ctrl_0.totalIdleTime              34016750                       # Total Idle time Per DRAM Rank
system.mem_ctrl_0.memoryStateTime::IDLE         42500                       # Time in different power states
system.mem_ctrl_0.memoryStateTime::REF        1300000                       # Time in different power states
system.mem_ctrl_0.memoryStateTime::SREF             0                       # Time in different power states
system.mem_ctrl_0.memoryStateTime::PRE_PDN      1213000                       # Time in different power states
system.mem_ctrl_0.memoryStateTime::ACT        8057500                       # Time in different power states
system.mem_ctrl_0.memoryStateTime::ACT_PDN     32852500                       # Time in different power states
system.mem_ctrl_1.actEnergy                    742560                       # Energy for activate commands per rank (pJ)
system.mem_ctrl_1.preEnergy                    375705                       # Energy for precharge commands per rank (pJ)
system.mem_ctrl_1.readEnergy                  3355800                       # Energy for read commands per rank (pJ)
system.mem_ctrl_1.writeEnergy                       0                       # Energy for write commands per rank (pJ)
system.mem_ctrl_1.refreshEnergy          3073200.000000                       # Energy for refresh commands per rank (pJ)
system.mem_ctrl_1.actBackEnergy               5583150                       # Energy for active background per rank (pJ)
system.mem_ctrl_1.preBackEnergy                134400                       # Energy for precharge background per rank (pJ)
system.mem_ctrl_1.actPowerDownEnergy         13680000                       # Energy for active power-down per rank (pJ)
system.mem_ctrl_1.prePowerDownEnergy           335040                       # Energy for precharge power-down per rank (pJ)
system.mem_ctrl_1.selfRefreshEnergy                 0                       # Energy for self refresh per rank (pJ)
system.mem_ctrl_1.totalEnergy                27279855                       # Total energy per rank (pJ)
system.mem_ctrl_1.averagePower             627.620872                       # Core power per rank (mW)
system.mem_ctrl_1.totalIdleTime              30704500                       # Total Idle time Per DRAM Rank
system.mem_ctrl_1.memoryStateTime::IDLE        130000                       # Time in different power states
system.mem_ctrl_1.memoryStateTime::REF        1300000                       # Time in different power states
system.mem_ctrl_1.memoryStateTime::SREF             0                       # Time in different power states
system.mem_ctrl_1.memoryStateTime::PRE_PDN       871250                       # Time in different power states
system.mem_ctrl_1.memoryStateTime::ACT       11169750                       # Time in different power states
system.mem_ctrl_1.memoryStateTime::ACT_PDN     29994500                       # Time in different power states
system.pwrStateResidencyTicks::UNDEFINED     43465500                       # Cumulative time (in ticks) in various power states
system.cpu.branchPred.lookups                    6147                       # Number of BP lookups
system.cpu.branchPred.condPredicted              6147                       # Number of conditional branches predicted
system.cpu.branchPred.condIncorrect               970                       # Number of conditional branches incorrect
system.cpu.branchPred.BTBLookups                 5543                       # Number of BTB lookups
system.cpu.branchPred.BTBHits                       0                       # Number of BTB hits
system.cpu.branchPred.BTBCorrect                    0                       # Number of correct BTB predictions (this stat may not work properly.
system.cpu.branchPred.BTBHitPct              0.000000                       # BTB Hit Percentage
system.cpu.branchPred.usedRAS                     456                       # Number of times the RAS was used to get a target.
system.cpu.branchPred.RASInCorrect                152                       # Number of incorrect RAS predictions.
system.cpu.branchPred.indirectLookups            5543                       # Number of indirect predictor lookups.
system.cpu.branchPred.indirectHits                547                       # Number of indirect target hits.
system.cpu.branchPred.indirectMisses             4996                       # Number of indirect misses.
system.cpu.branchPredindirectMispredicted          758                       # Number of mispredicted indirect branches.
system.cpu.dtb.walker.pwrStateResidencyTicks::UNDEFINED     43465500                       # Cumulative time (in ticks) in various power states
system.cpu.dtb.rdAccesses                        2593                       # TLB accesses on read requests
system.cpu.dtb.wrAccesses                        1994                       # TLB accesses on write requests
system.cpu.dtb.rdMisses                           116                       # TLB misses on read requests
system.cpu.dtb.wrMisses                            30                       # TLB misses on write requests
system.cpu.apic_clk_domain.clock                 8000                       # Clock period in ticks
system.cpu.interrupts.pwrStateResidencyTicks::UNDEFINED     43465500                       # Cumulative time (in ticks) in various power states
system.cpu.itb.walker.pwrStateResidencyTicks::UNDEFINED     43465500                       # Cumulative time (in ticks) in various power states
system.cpu.itb.rdAccesses                           0                       # TLB accesses on read requests
system.cpu.itb.wrAccesses                        3560                       # TLB accesses on write requests
system.cpu.itb.rdMisses                             0                       # TLB misses on read requests
system.cpu.itb.wrMisses                           166                       # TLB misses on write requests
system.cpu.workload.numSyscalls                    11                       # Number of system calls
system.cpu.pwrStateResidencyTicks::ON        43465500                       # Cumulative time (in ticks) in various power states
system.cpu.numCycles                            86932                       # number of cpu cycles simulated
system.cpu.numWorkItemsStarted                      0                       # number of work items this cpu started
system.cpu.numWorkItemsCompleted                    0                       # number of work items this cpu completed
system.cpu.fetch.icacheStallCycles              33871                       # Number of cycles fetch is stalled on an Icache miss
system.cpu.fetch.Insts                          26851                       # Number of instructions fetch has processed
system.cpu.fetch.Branches                        6147                       # Number of branches that fetch encountered
system.cpu.fetch.predictedBranches               1003                       # Number of branches that fetch has predicted taken
system.cpu.fetch.Cycles                         27124                       # Number of cycles fetch has run and was not squashing or blocked
system.cpu.fetch.SquashCycles                    2122                       # Number of cycles fetch has spent squashing
system.cpu.fetch.MiscStallCycles                   94                       # Number of cycles fetch has spent waiting on interrupts, or bad addresses, or out of MSHRs
system.cpu.fetch.PendingTrapStallCycles          1136                       # Number of stall cycles due to pending traps
system.cpu.fetch.PendingQuiesceStallCycles           24                       # Number of stall cycles due to pending quiesce instructions
system.cpu.fetch.IcacheWaitRetryStallCycles          113                       # Number of stall cycles due to full MSHR
system.cpu.fetch.CacheLines                      3443                       # Number of cache lines fetched
system.cpu.fetch.IcacheSquashes                   359                       # Number of outstanding Icache misses that were squashed
system.cpu.fetch.rateDist::samples              63423                       # Number of instructions fetched each cycle (Total)
system.cpu.fetch.rateDist::mean              0.856487                       # Number of instructions fetched each cycle (Total)
system.cpu.fetch.rateDist::stdev             1.606753                       # Number of instructions fetched each cycle (Total)
system.cpu.fetch.rateDist::underflows               0      0.00%      0.00% # Number of instructions fetched each cycle (Total)
system.cpu.fetch.rateDist::0                    48774     76.90%     76.90% # Number of instructions fetched each cycle (Total)
system.cpu.fetch.rateDist::1                      722      1.14%     78.04% # Number of instructions fetched each cycle (Total)
system.cpu.fetch.rateDist::2                      734      1.16%     79.20% # Number of instructions fetched each cycle (Total)
system.cpu.fetch.rateDist::3                      641      1.01%     80.21% # Number of instructions fetched each cycle (Total)
system.cpu.fetch.rateDist::4                    12552     19.79%    100.00% # Number of instructions fetched each cycle (Total)
system.cpu.fetch.rateDist::overflows                0      0.00%    100.00% # Number of instructions fetched each cycle (Total)
system.cpu.fetch.rateDist::min_value                0                       # Number of instructions fetched each cycle (Total)
system.cpu.fetch.rateDist::max_value                4                       # Number of instructions fetched each cycle (Total)
system.cpu.fetch.rateDist::total                63423                       # Number of instructions fetched each cycle (Total)
system.cpu.fetch.branchRate                  0.070710                       # Number of branch fetches per cycle
system.cpu.fetch.rate                        0.308874                       # Number of inst fetches per cycle
system.cpu.decode.IdleCycles                    33400                       # Number of cycles decode is idle
system.cpu.decode.BlockedCycles                 16284                       # Number of cycles decode is blocked
system.cpu.decode.RunCycles                     12083                       # Number of cycles decode is running
system.cpu.decode.UnblockCycles                   595                       # Number of cycles decode is unblocking
system.cpu.decode.SquashCycles                   1061                       # Number of cycles decode is squashing
system.cpu.decode.DecodedInsts                  44868                       # Number of instructions handled by decode
system.cpu.decode.SquashedInsts                  3388                       # Number of squashed instructions handled by decode
system.cpu.rename.SquashCycles                   1061                       # Number of cycles rename is squashing
system.cpu.rename.IdleCycles                    35168                       # Number of cycles rename is idle
system.cpu.rename.BlockCycles                    5543                       # Number of cycles rename is blocking
system.cpu.rename.serializeStallCycles           1413                       # count of cycles rename stalled for serializing inst
system.cpu.rename.RunCycles                     10874                       # Number of cycles rename is running
system.cpu.rename.UnblockCycles                  9364                       # Number of cycles rename is unblocking
system.cpu.rename.RenamedInsts                  40765                       # Number of instructions processed by rename
system.cpu.rename.SquashedInsts                  1566                       # Number of squashed instructions processed by rename
system.cpu.rename.ROBFullEvents                    28                       # Number of times rename has blocked due to ROB full
system.cpu.rename.IQFullEvents                    138                       # Number of times rename has blocked due to IQ full
system.cpu.rename.SQFullEvents                   8931                       # Number of times rename has blocked due to SQ full
system.cpu.rename.FullRegisterEvents               96                       # Number of times there has been no free registers
system.cpu.rename.RenamedOperands               43550                       # Number of destination operands rename has renamed
system.cpu.rename.RenameLookups                 99300                       # Number of register rename lookups that rename has made
system.cpu.rename.int_rename_lookups            55814                       # Number of integer rename lookups
system.cpu.rename.fp_rename_lookups              4115                       # Number of floating rename lookups
system.cpu.rename.CommittedMaps                 16766                       # Number of HB maps that are committed
system.cpu.rename.UndoneMaps                    26784                       # Number of HB maps that are undone due to squashing
system.cpu.rename.serializingInsts                 36                       # count of serializing insts renamed
system.cpu.rename.tempSerializingInsts             33                       # count of temporary serializing insts renamed
system.cpu.rename.skidInsts                      2177                       # count of insts added to the skid buffer
system.cpu.memDep0.insertedLoads                 4102                       # Number of loads inserted to the mem dependence unit.
system.cpu.memDep0.insertedStores                3190                       # Number of stores inserted to the mem dependence unit.
system.cpu.memDep0.conflictingLoads                27                       # Number of conflicting loads.
system.cpu.memDep0.conflictingStores               69                       # Number of conflicting stores.
system.cpu.iq.iqInstsAdded                      37138                       # Number of instructions added to the IQ (excludes non-spec)
system.cpu.iq.iqNonSpecInstsAdded                 116                       # Number of non-speculative instructions added to the IQ
system.cpu.iq.iqInstsIssued                     27419                       # Number of instructions issued
system.cpu.iq.iqSquashedInstsIssued              2410                       # Number of squashed instructions issued
system.cpu.iq.iqSquashedInstsExamined           21685                       # Number of squashed instructions iterated over during squash; mainly for profiling
system.cpu.iq.iqSquashedOperandsExamined        33564                       # Number of squashed operands that are examined and possibly removed from graph
system.cpu.iq.iqSquashedNonSpecRemoved            105                       # Number of squashed non-spec instructions that were removed
system.cpu.iq.issued_per_cycle::samples         63423                       # Number of insts issued each cycle
system.cpu.iq.issued_per_cycle::mean         0.432320                       # Number of insts issued each cycle
system.cpu.iq.issued_per_cycle::stdev        0.905897                       # Number of insts issued each cycle
system.cpu.iq.issued_per_cycle::underflows            0      0.00%      0.00% # Number of insts issued each cycle
system.cpu.iq.issued_per_cycle::0               50139     79.05%     79.05% # Number of insts issued each cycle
system.cpu.iq.issued_per_cycle::1                3046      4.80%     83.86% # Number of insts issued each cycle
system.cpu.iq.issued_per_cycle::2                6550     10.33%     94.19% # Number of insts issued each cycle
system.cpu.iq.issued_per_cycle::3                3479      5.49%     99.67% # Number of insts issued each cycle
system.cpu.iq.issued_per_cycle::4                 209      0.33%    100.00% # Number of insts issued each cycle
system.cpu.iq.issued_per_cycle::overflows            0      0.00%    100.00% # Number of insts issued each cycle
system.cpu.iq.issued_per_cycle::min_value            0                       # Number of insts issued each cycle
system.cpu.iq.issued_per_cycle::max_value            4                       # Number of insts issued each cycle
system.cpu.iq.issued_per_cycle::total           63423                       # Number of insts issued each cycle
system.cpu.iq.fu_full::No_OpClass                   0      0.00%      0.00% # attempts to use FU when none available
system.cpu.iq.fu_full::IntAlu                    6144     76.88%     76.88% # attempts to use FU when none available
system.cpu.iq.fu_full::IntMult                      0      0.00%     76.88% # attempts to use FU when none available
system.cpu.iq.fu_full::IntDiv                       0      0.00%     76.88% # attempts to use FU when none available
system.cpu.iq.fu_full::FloatAdd                     0      0.00%     76.88% # attempts to use FU when none available
system.cpu.iq.fu_full::FloatCmp                     0      0.00%     76.88% # attempts to use FU when none available
system.cpu.iq.fu_full::FloatCvt                     0      0.00%     76.88% # attempts to use FU when none available
system.cpu.iq.fu_full::FloatMult                    0      0.00%     76.88% # attempts to use FU when none available
system.cpu.iq.fu_full::FloatMultAcc                 0      0.00%     76.88% # attempts to use FU when none available
system.cpu.iq.fu_full::FloatDiv                     0      0.00%     76.88% # attempts to use FU when none available
system.cpu.iq.fu_full::FloatMisc                    0      0.00%     76.88% # attempts to use FU when none available
system.cpu.iq.fu_full::FloatSqrt                    0      0.00%     76.88% # attempts to use FU when none available
system.cpu.iq.fu_full::SimdAdd                    269      3.37%     80.24% # attempts to use FU when none available
system.cpu.iq.fu_full::SimdAddAcc                   0      0.00%     80.24% # attempts to use FU when none available
system.cpu.iq.fu_full::SimdAlu                     72      0.90%     81.14% # attempts to use FU when none available
system.cpu.iq.fu_full::SimdCmp                      0      0.00%     81.14% # attempts to use FU when none available
system.cpu.iq.fu_full::SimdCvt                     36      0.45%     81.59% # attempts to use FU when none available
system.cpu.iq.fu_full::SimdMisc                   130      1.63%     83.22% # attempts to use FU when none available
system.cpu.iq.fu_full::SimdMult                     0      0.00%     83.22% # attempts to use FU when none available
system.cpu.iq.fu_full::SimdMultAcc                  0      0.00%     83.22% # attempts to use FU when none available
system.cpu.iq.fu_full::SimdShift                  124      1.55%     84.77% # attempts to use FU when none available
system.cpu.iq.fu_full::SimdShiftAcc                 0      0.00%     84.77% # attempts to use FU when none available
system.cpu.iq.fu_full::SimdSqrt                     0      0.00%     84.77% # attempts to use FU when none available
system.cpu.iq.fu_full::SimdFloatAdd                 0      0.00%     84.77% # attempts to use FU when none available
system.cpu.iq.fu_full::SimdFloatAlu                 0      0.00%     84.77% # attempts to use FU when none available
system.cpu.iq.fu_full::SimdFloatCmp                 0      0.00%     84.77% # attempts to use FU when none available
system.cpu.iq.fu_full::SimdFloatCvt                 0      0.00%     84.77% # attempts to use FU when none available
system.cpu.iq.fu_full::SimdFloatDiv                 0      0.00%     84.77% # attempts to use FU when none available
system.cpu.iq.fu_full::SimdFloatMisc                0      0.00%     84.77% # attempts to use FU when none available
system.cpu.iq.fu_full::SimdFloatMult                0      0.00%     84.77% # attempts to use FU when none available
system.cpu.iq.fu_full::SimdFloatMultAcc             0      0.00%     84.77% # attempts to use FU when none available
system.cpu.iq.fu_full::SimdFloatSqrt                0      0.00%     84.77% # attempts to use FU when none available
system.cpu.iq.fu_full::SimdAes                      0      0.00%     84.77% # attempts to use FU when none available
system.cpu.iq.fu_full::SimdAesMix                   0      0.00%     84.77% # attempts to use FU when none available
system.cpu.iq.fu_full::SimdSha1Hash                 0      0.00%     84.77% # attempts to use FU when none available
system.cpu.iq.fu_full::SimdSha1Hash2                0      0.00%     84.77% # attempts to use FU when none available
system.cpu.iq.fu_full::SimdSha256Hash               0      0.00%     84.77% # attempts to use FU when none available
system.cpu.iq.fu_full::SimdSha256Hash2              0      0.00%     84.77% # attempts to use FU when none available
system.cpu.iq.fu_full::SimdShaSigma2                0      0.00%     84.77% # attempts to use FU when none available
system.cpu.iq.fu_full::SimdShaSigma3                0      0.00%     84.77% # attempts to use FU when none available
system.cpu.iq.fu_full::MemRead                    896     11.21%     95.98% # attempts to use FU when none available
system.cpu.iq.fu_full::MemWrite                   321      4.02%    100.00% # attempts to use FU when none available
system.cpu.iq.fu_full::FloatMemRead                 0      0.00%    100.00% # attempts to use FU when none available
system.cpu.iq.fu_full::FloatMemWrite                0      0.00%    100.00% # attempts to use FU when none available
system.cpu.iq.fu_full::IprAccess                    0      0.00%    100.00% # attempts to use FU when none available
system.cpu.iq.fu_full::InstPrefetch                 0      0.00%    100.00% # attempts to use FU when none available
system.cpu.iq.FU_type_0::No_OpClass               432      1.58%      1.58% # Type of FU issued
system.cpu.iq.FU_type_0::IntAlu                 20745     75.66%     77.23% # Type of FU issued
system.cpu.iq.FU_type_0::IntMult                    4      0.01%     77.25% # Type of FU issued
system.cpu.iq.FU_type_0::IntDiv                    32      0.12%     77.37% # Type of FU issued
system.cpu.iq.FU_type_0::FloatAdd                  15      0.05%     77.42% # Type of FU issued
system.cpu.iq.FU_type_0::FloatCmp                   0      0.00%     77.42% # Type of FU issued
system.cpu.iq.FU_type_0::FloatCvt                   0      0.00%     77.42% # Type of FU issued
system.cpu.iq.FU_type_0::FloatMult                  0      0.00%     77.42% # Type of FU issued
system.cpu.iq.FU_type_0::FloatMultAcc               0      0.00%     77.42% # Type of FU issued
system.cpu.iq.FU_type_0::FloatDiv                   0      0.00%     77.42% # Type of FU issued
system.cpu.iq.FU_type_0::FloatMisc                  0      0.00%     77.42% # Type of FU issued
system.cpu.iq.FU_type_0::FloatSqrt                  0      0.00%     77.42% # Type of FU issued
system.cpu.iq.FU_type_0::SimdAdd                  378      1.38%     78.80% # Type of FU issued
system.cpu.iq.FU_type_0::SimdAddAcc                 0      0.00%     78.80% # Type of FU issued
system.cpu.iq.FU_type_0::SimdAlu                   94      0.34%     79.14% # Type of FU issued
system.cpu.iq.FU_type_0::SimdCmp                    0      0.00%     79.14% # Type of FU issued
system.cpu.iq.FU_type_0::SimdCvt                  130      0.47%     79.62% # Type of FU issued
system.cpu.iq.FU_type_0::SimdMisc                 241      0.88%     80.50% # Type of FU issued
system.cpu.iq.FU_type_0::SimdMult                   0      0.00%     80.50% # Type of FU issued
system.cpu.iq.FU_type_0::SimdMultAcc                0      0.00%     80.50% # Type of FU issued
system.cpu.iq.FU_type_0::SimdShift                186      0.68%     81.17% # Type of FU issued
system.cpu.iq.FU_type_0::SimdShiftAcc               0      0.00%     81.17% # Type of FU issued
system.cpu.iq.FU_type_0::SimdSqrt                   0      0.00%     81.17% # Type of FU issued
system.cpu.iq.FU_type_0::SimdFloatAdd               0      0.00%     81.17% # Type of FU issued
system.cpu.iq.FU_type_0::SimdFloatAlu               0      0.00%     81.17% # Type of FU issued
system.cpu.iq.FU_type_0::SimdFloatCmp               0      0.00%     81.17% # Type of FU issued
system.cpu.iq.FU_type_0::SimdFloatCvt               0      0.00%     81.17% # Type of FU issued
system.cpu.iq.FU_type_0::SimdFloatDiv               0      0.00%     81.17% # Type of FU issued
system.cpu.iq.FU_type_0::SimdFloatMisc              0      0.00%     81.17% # Type of FU issued
system.cpu.iq.FU_type_0::SimdFloatMult              0      0.00%     81.17% # Type of FU issued
system.cpu.iq.FU_type_0::SimdFloatMultAcc            0      0.00%     81.17% # Type of FU issued
system.cpu.iq.FU_type_0::SimdFloatSqrt              0      0.00%     81.17% # Type of FU issued
system.cpu.iq.FU_type_0::SimdAes                    0      0.00%     81.17% # Type of FU issued
system.cpu.iq.FU_type_0::SimdAesMix                 0      0.00%     81.17% # Type of FU issued
system.cpu.iq.FU_type_0::SimdSha1Hash               0      0.00%     81.17% # Type of FU issued
system.cpu.iq.FU_type_0::SimdSha1Hash2              0      0.00%     81.17% # Type of FU issued
system.cpu.iq.FU_type_0::SimdSha256Hash             0      0.00%     81.17% # Type of FU issued
system.cpu.iq.FU_type_0::SimdSha256Hash2            0      0.00%     81.17% # Type of FU issued
system.cpu.iq.FU_type_0::SimdShaSigma2              0      0.00%     81.17% # Type of FU issued
system.cpu.iq.FU_type_0::SimdShaSigma3              0      0.00%     81.17% # Type of FU issued
system.cpu.iq.FU_type_0::MemRead                 2835     10.34%     91.51% # Type of FU issued
system.cpu.iq.FU_type_0::MemWrite                1770      6.46%     97.97% # Type of FU issued
system.cpu.iq.FU_type_0::FloatMemRead             113      0.41%     98.38% # Type of FU issued
system.cpu.iq.FU_type_0::FloatMemWrite            444      1.62%    100.00% # Type of FU issued
system.cpu.iq.FU_type_0::IprAccess                  0      0.00%    100.00% # Type of FU issued
system.cpu.iq.FU_type_0::InstPrefetch               0      0.00%    100.00% # Type of FU issued
system.cpu.iq.FU_type_0::total                  27419                       # Type of FU issued
system.cpu.iq.rate                           0.315407                       # Inst issue rate
system.cpu.iq.fu_busy_cnt                        7992                       # FU busy when requested
system.cpu.iq.fu_busy_rate                   0.291477                       # FU busy rate (busy events/executed inst)
system.cpu.iq.int_inst_queue_reads             123676                       # Number of integer instruction queue reads
system.cpu.iq.int_inst_queue_writes             56603                       # Number of integer instruction queue writes
system.cpu.iq.int_inst_queue_wakeup_accesses        22249                       # Number of integer instruction queue wakeup accesses
system.cpu.iq.fp_inst_queue_reads                4987                       # Number of floating instruction queue reads
system.cpu.iq.fp_inst_queue_writes               2343                       # Number of floating instruction queue writes
system.cpu.iq.fp_inst_queue_wakeup_accesses         2087                       # Number of floating instruction queue wakeup accesses
system.cpu.iq.vec_inst_queue_reads                  0                       # Number of vector instruction queue reads
system.cpu.iq.vec_inst_queue_writes                 0                       # Number of vector instruction queue writes
system.cpu.iq.vec_inst_queue_wakeup_accesses            0                       # Number of vector instruction queue wakeup accesses
system.cpu.iq.int_alu_accesses                  32131                       # Number of integer alu accesses
system.cpu.iq.fp_alu_accesses                    2848                       # Number of floating point alu accesses
system.cpu.iq.vec_alu_accesses                      0                       # Number of vector alu accesses
system.cpu.iew.lsq.thread0.forwLoads               60                       # Number of loads that had data forwarded from stores
system.cpu.iew.lsq.thread0.invAddrLoads             0                       # Number of loads ignored due to an invalid address
system.cpu.iew.lsq.thread0.squashedLoads         2635                       # Number of loads squashed
system.cpu.iew.lsq.thread0.ignoredResponses            3                       # Number of memory responses ignored because the instruction is squashed
system.cpu.iew.lsq.thread0.memOrderViolation            7                       # Number of memory ordering violations
system.cpu.iew.lsq.thread0.squashedStores         1656                       # Number of stores squashed
system.cpu.iew.lsq.thread0.invAddrSwpfs             0                       # Number of software prefetches ignored due to an invalid address
system.cpu.iew.lsq.thread0.blockedLoads             0                       # Number of blocked loads due to partial load-store forwarding
system.cpu.iew.lsq.thread0.rescheduledLoads            1                       # Number of loads that were rescheduled
system.cpu.iew.lsq.thread0.cacheBlocked            13                       # Number of times an access to memory failed due to the cache being blocked
system.cpu.iew.iewIdleCycles                        0                       # Number of cycles IEW is idle
system.cpu.iew.iewSquashCycles                   1061                       # Number of cycles IEW is squashing
system.cpu.iew.iewBlockCycles                    1388                       # Number of cycles IEW is blocking
system.cpu.iew.iewUnblockCycles                  1772                       # Number of cycles IEW is unblocking
system.cpu.iew.iewDispatchedInsts               37254                       # Number of instructions dispatched to IQ
system.cpu.iew.iewDispSquashedInsts               239                       # Number of squashed instructions skipped by dispatch
system.cpu.iew.iewDispLoadInsts                  4102                       # Number of dispatched load instructions
system.cpu.iew.iewDispStoreInsts                 3190                       # Number of dispatched store instructions
system.cpu.iew.iewDispNonSpecInsts                 53                       # Number of dispatched non-speculative instructions
system.cpu.iew.iewIQFullEvents                      6                       # Number of times the IQ has become full, causing a stall
system.cpu.iew.iewLSQFullEvents                  1757                       # Number of times the LSQ has become full, causing a stall
system.cpu.iew.memOrderViolationEvents              7                       # Number of memory order violations
system.cpu.iew.predictedTakenIncorrect            201                       # Number of branches that were predicted taken incorrectly
system.cpu.iew.predictedNotTakenIncorrect         1081                       # Number of branches that were predicted not taken incorrectly
system.cpu.iew.branchMispredicts                 1282                       # Number of branch mispredicts detected at execute
system.cpu.iew.iewExecutedInsts                 24943                       # Number of executed instructions
system.cpu.iew.iewExecLoadInsts                  2578                       # Number of load instructions executed
system.cpu.iew.iewExecSquashedInsts              2476                       # Number of squashed instructions skipped in execute
system.cpu.iew.exec_swp                             0                       # number of swp insts executed
system.cpu.iew.exec_nop                             0                       # number of nop insts executed
system.cpu.iew.exec_refs                         4572                       # number of memory reference insts executed
system.cpu.iew.exec_branches                     2213                       # Number of branches executed
system.cpu.iew.exec_stores                       1994                       # Number of stores executed
system.cpu.iew.exec_rate                     0.286925                       # Inst execution rate
system.cpu.iew.wb_sent                          24645                       # cumulative count of insts sent to commit
system.cpu.iew.wb_count                         24336                       # cumulative count of insts written-back
system.cpu.iew.wb_producers                     17159                       # num instructions producing a value
system.cpu.iew.wb_consumers                     27288                       # num instructions consuming a value
system.cpu.iew.wb_rate                       0.279943                       # insts written-back per cycle
system.cpu.iew.wb_fanout                     0.628811                       # average fanout of values written-back
system.cpu.commit.commitSquashedInsts           19769                       # The number of squashed insts skipped by commit
system.cpu.commit.commitNonSpecStalls              11                       # The number of times commit has been forced to stall to communicate backwards
system.cpu.commit.branchMispredicts              1054                       # The number of times a branch was mispredicted
system.cpu.commit.committed_per_cycle::samples        61376                       # Number of insts commited each cycle
system.cpu.commit.committed_per_cycle::mean     0.253650                       # Number of insts commited each cycle
system.cpu.commit.committed_per_cycle::stdev     0.809165                       # Number of insts commited each cycle
system.cpu.commit.committed_per_cycle::underflows            0      0.00%      0.00% # Number of insts commited each cycle
system.cpu.commit.committed_per_cycle::0        54296     88.46%     88.46% # Number of insts commited each cycle
system.cpu.commit.committed_per_cycle::1         2885      4.70%     93.17% # Number of insts commited each cycle
system.cpu.commit.committed_per_cycle::2         1404      2.29%     95.45% # Number of insts commited each cycle
system.cpu.commit.committed_per_cycle::3         1289      2.10%     97.55% # Number of insts commited each cycle
system.cpu.commit.committed_per_cycle::4         1502      2.45%    100.00% # Number of insts commited each cycle
system.cpu.commit.committed_per_cycle::overflows            0      0.00%    100.00% # Number of insts commited each cycle
system.cpu.commit.committed_per_cycle::min_value            0                       # Number of insts commited each cycle
system.cpu.commit.committed_per_cycle::max_value            4                       # Number of insts commited each cycle
system.cpu.commit.committed_per_cycle::total        61376                       # Number of insts commited each cycle
system.cpu.commit.committedInsts                 7717                       # Number of instructions committed
system.cpu.commit.committedOps                  15568                       # Number of ops (including micro ops) committed
system.cpu.commit.swp_count                         0                       # Number of s/w prefetches committed
system.cpu.commit.refs                           3001                       # Number of memory references committed
system.cpu.commit.loads                          1467                       # Number of loads committed
system.cpu.commit.membars                           0                       # Number of memory barriers committed
system.cpu.commit.branches                       1579                       # Number of branches committed
system.cpu.commit.vec_insts                         0                       # Number of committed Vector instructions.
system.cpu.commit.fp_insts                       2049                       # Number of committed floating point instructions.
system.cpu.commit.int_insts                     13970                       # Number of committed integer instructions.
system.cpu.commit.function_calls                  153                       # Number of function calls committed.
system.cpu.commit.op_class_0::No_OpClass          109      0.70%      0.70% # Class of committed instruction
system.cpu.commit.op_class_0::IntAlu            11394     73.19%     73.89% # Class of committed instruction
system.cpu.commit.op_class_0::IntMult               4      0.03%     73.91% # Class of committed instruction
system.cpu.commit.op_class_0::IntDiv               28      0.18%     74.09% # Class of committed instruction
system.cpu.commit.op_class_0::FloatAdd             12      0.08%     74.17% # Class of committed instruction
system.cpu.commit.op_class_0::FloatCmp              0      0.00%     74.17% # Class of committed instruction
system.cpu.commit.op_class_0::FloatCvt              0      0.00%     74.17% # Class of committed instruction
system.cpu.commit.op_class_0::FloatMult             0      0.00%     74.17% # Class of committed instruction
system.cpu.commit.op_class_0::FloatMultAcc            0      0.00%     74.17% # Class of committed instruction
system.cpu.commit.op_class_0::FloatDiv              0      0.00%     74.17% # Class of committed instruction
system.cpu.commit.op_class_0::FloatMisc             0      0.00%     74.17% # Class of committed instruction
system.cpu.commit.op_class_0::FloatSqrt             0      0.00%     74.17% # Class of committed instruction
system.cpu.commit.op_class_0::SimdAdd             374      2.40%     76.57% # Class of committed instruction
system.cpu.commit.op_class_0::SimdAddAcc            0      0.00%     76.57% # Class of committed instruction
system.cpu.commit.op_class_0::SimdAlu              90      0.58%     77.15% # Class of committed instruction
system.cpu.commit.op_class_0::SimdCmp               0      0.00%     77.15% # Class of committed instruction
system.cpu.commit.op_class_0::SimdCvt             130      0.84%     77.99% # Class of committed instruction
system.cpu.commit.op_class_0::SimdMisc            240      1.54%     79.53% # Class of committed instruction
system.cpu.commit.op_class_0::SimdMult              0      0.00%     79.53% # Class of committed instruction
system.cpu.commit.op_class_0::SimdMultAcc            0      0.00%     79.53% # Class of committed instruction
system.cpu.commit.op_class_0::SimdShift           186      1.19%     80.72% # Class of committed instruction
system.cpu.commit.op_class_0::SimdShiftAcc            0      0.00%     80.72% # Class of committed instruction
system.cpu.commit.op_class_0::SimdSqrt              0      0.00%     80.72% # Class of committed instruction
system.cpu.commit.op_class_0::SimdFloatAdd            0      0.00%     80.72% # Class of committed instruction
system.cpu.commit.op_class_0::SimdFloatAlu            0      0.00%     80.72% # Class of committed instruction
system.cpu.commit.op_class_0::SimdFloatCmp            0      0.00%     80.72% # Class of committed instruction
system.cpu.commit.op_class_0::SimdFloatCvt            0      0.00%     80.72% # Class of committed instruction
system.cpu.commit.op_class_0::SimdFloatDiv            0      0.00%     80.72% # Class of committed instruction
system.cpu.commit.op_class_0::SimdFloatMisc            0      0.00%     80.72% # Class of committed instruction
system.cpu.commit.op_class_0::SimdFloatMult            0      0.00%     80.72% # Class of committed instruction
system.cpu.commit.op_class_0::SimdFloatMultAcc            0      0.00%     80.72% # Class of committed instruction
system.cpu.commit.op_class_0::SimdFloatSqrt            0      0.00%     80.72% # Class of committed instruction
system.cpu.commit.op_class_0::SimdAes               0      0.00%     80.72% # Class of committed instruction
system.cpu.commit.op_class_0::SimdAesMix            0      0.00%     80.72% # Class of committed instruction
system.cpu.commit.op_class_0::SimdSha1Hash            0      0.00%     80.72% # Class of committed instruction
system.cpu.commit.op_class_0::SimdSha1Hash2            0      0.00%     80.72% # Class of committed instruction
system.cpu.commit.op_class_0::SimdSha256Hash            0      0.00%     80.72% # Class of committed instruction
system.cpu.commit.op_class_0::SimdSha256Hash2            0      0.00%     80.72% # Class of committed instruction
system.cpu.commit.op_class_0::SimdShaSigma2            0      0.00%     80.72% # Class of committed instruction
system.cpu.commit.op_class_0::SimdShaSigma3            0      0.00%     80.72% # Class of committed instruction
system.cpu.commit.op_class_0::MemRead            1393      8.95%     89.67% # Class of committed instruction
system.cpu.commit.op_class_0::MemWrite           1113      7.15%     96.82% # Class of committed instruction
system.cpu.commit.op_class_0::FloatMemRead           74      0.48%     97.30% # Class of committed instruction
system.cpu.commit.op_class_0::FloatMemWrite          421      2.70%    100.00% # Class of committed instruction
system.cpu.commit.op_class_0::IprAccess             0      0.00%    100.00% # Class of committed instruction
system.cpu.commit.op_class_0::InstPrefetch            0      0.00%    100.00% # Class of committed instruction
system.cpu.commit.op_class_0::total             15568                       # Class of committed instruction
system.cpu.commit.bw_lim_events                  1502                       # number cycles where commit BW limit reached
system.cpu.rob.rob_reads                        95211                       # The number of ROB reads
system.cpu.rob.rob_writes                       72760                       # The number of ROB writes
system.cpu.timesIdled                             295                       # Number of times that the entire CPU went into an idle state and unscheduled itself
system.cpu.idleCycles                           23509                       # Total number of cycles that the CPU has spent unscheduled due to idling
system.cpu.committedInsts                        7717                       # Number of Instructions Simulated
system.cpu.committedOps                         15568                       # Number of Ops (including micro ops) Simulated
system.cpu.cpi                              11.264999                       # CPI: Cycles Per Instruction
system.cpu.cpi_total                        11.264999                       # CPI: Total CPI of All Threads
system.cpu.ipc                               0.088771                       # IPC: Instructions Per Cycle
system.cpu.ipc_total                         0.088771                       # IPC: Total IPC of All Threads
system.cpu.int_regfile_reads                    30885                       # number of integer regfile reads
system.cpu.int_regfile_writes                   18403                       # number of integer regfile writes
system.cpu.fp_regfile_reads                      3982                       # number of floating regfile reads
system.cpu.fp_regfile_writes                     1590                       # number of floating regfile writes
system.cpu.cc_regfile_reads                     10485                       # number of cc regfile reads
system.cpu.cc_regfile_writes                     6126                       # number of cc regfile writes
system.cpu.misc_regfile_reads                   10695                       # number of misc regfile reads
system.cpu.dcache.tags.pwrStateResidencyTicks::UNDEFINED     43465500                       # Cumulative time (in ticks) in various power states
system.cpu.dcache.tags.tagsinuse           148.248993                       # Cycle average of tags in use
system.cpu.dcache.tags.total_refs                3839                       # Total number of references to valid blocks.
system.cpu.dcache.tags.sampled_refs               260                       # Sample count of references to valid blocks.
system.cpu.dcache.tags.avg_refs             14.765385                       # Average number of references to valid blocks.
system.cpu.dcache.tags.warmup_cycle            169500                       # Cycle when the warmup percentage was hit.
system.cpu.dcache.tags.occ_blocks::.cpu.data   148.248993                       # Average occupied blocks per requestor
system.cpu.dcache.tags.occ_percent::.cpu.data     0.289549                       # Average percentage of cache occupancy
system.cpu.dcache.tags.occ_percent::total     0.289549                       # Average percentage of cache occupancy
system.cpu.dcache.tags.occ_task_id_blocks::1024          260                       # Occupied blocks per task id
system.cpu.dcache.tags.age_task_id_blocks_1024::0           42                       # Occupied blocks per task id
system.cpu.dcache.tags.age_task_id_blocks_1024::1          218                       # Occupied blocks per task id
system.cpu.dcache.tags.occ_task_id_percent::1024     0.507812                       # Percentage of cache occupancy per task id
system.cpu.dcache.tags.tag_accesses             31900                       # Number of tag accesses
system.cpu.dcache.tags.data_accesses            31900                       # Number of data accesses
system.cpu.dcache.pwrStateResidencyTicks::UNDEFINED     43465500                       # Cumulative time (in ticks) in various power states
system.cpu.dcache.ReadReq_hits::.cpu.data         2173                       # number of ReadReq hits
system.cpu.dcache.ReadReq_hits::total            2173                       # number of ReadReq hits
system.cpu.dcache.WriteReq_hits::.cpu.data         1406                       # number of WriteReq hits
system.cpu.dcache.WriteReq_hits::total           1406                       # number of WriteReq hits
system.cpu.dcache.demand_hits::.cpu.data         3579                       # number of demand (read+write) hits
system.cpu.dcache.demand_hits::total             3579                       # number of demand (read+write) hits
system.cpu.dcache.overall_hits::.cpu.data         3579                       # number of overall hits
system.cpu.dcache.overall_hits::total            3579                       # number of overall hits
system.cpu.dcache.ReadReq_misses::.cpu.data          248                       # number of ReadReq misses
system.cpu.dcache.ReadReq_misses::total           248                       # number of ReadReq misses
system.cpu.dcache.WriteReq_misses::.cpu.data          128                       # number of WriteReq misses
system.cpu.dcache.WriteReq_misses::total          128                       # number of WriteReq misses
system.cpu.dcache.demand_misses::.cpu.data          376                       # number of demand (read+write) misses
system.cpu.dcache.demand_misses::total            376                       # number of demand (read+write) misses
system.cpu.dcache.overall_misses::.cpu.data          376                       # number of overall misses
system.cpu.dcache.overall_misses::total           376                       # number of overall misses
system.cpu.dcache.ReadReq_miss_latency::.cpu.data     19069500                       # number of ReadReq miss cycles
system.cpu.dcache.ReadReq_miss_latency::total     19069500                       # number of ReadReq miss cycles
system.cpu.dcache.WriteReq_miss_latency::.cpu.data     10382000                       # number of WriteReq miss cycles
system.cpu.dcache.WriteReq_miss_latency::total     10382000                       # number of WriteReq miss cycles
system.cpu.dcache.demand_miss_latency::.cpu.data     29451500                       # number of demand (read+write) miss cycles
system.cpu.dcache.demand_miss_latency::total     29451500                       # number of demand (read+write) miss cycles
system.cpu.dcache.overall_miss_latency::.cpu.data     29451500                       # number of overall miss cycles
system.cpu.dcache.overall_miss_latency::total     29451500                       # number of overall miss cycles
system.cpu.dcache.ReadReq_accesses::.cpu.data         2421                       # number of ReadReq accesses(hits+misses)
system.cpu.dcache.ReadReq_accesses::total         2421                       # number of ReadReq accesses(hits+misses)
system.cpu.dcache.WriteReq_accesses::.cpu.data         1534                       # number of WriteReq accesses(hits+misses)
system.cpu.dcache.WriteReq_accesses::total         1534                       # number of WriteReq accesses(hits+misses)
system.cpu.dcache.demand_accesses::.cpu.data         3955                       # number of demand (read+write) accesses
system.cpu.dcache.demand_accesses::total         3955                       # number of demand (read+write) accesses
system.cpu.dcache.overall_accesses::.cpu.data         3955                       # number of overall (read+write) accesses
system.cpu.dcache.overall_accesses::total         3955                       # number of overall (read+write) accesses
system.cpu.dcache.ReadReq_miss_rate::.cpu.data     0.102437                       # miss rate for ReadReq accesses
system.cpu.dcache.ReadReq_miss_rate::total     0.102437                       # miss rate for ReadReq accesses
system.cpu.dcache.WriteReq_miss_rate::.cpu.data     0.083442                       # miss rate for WriteReq accesses
system.cpu.dcache.WriteReq_miss_rate::total     0.083442                       # miss rate for WriteReq accesses
system.cpu.dcache.demand_miss_rate::.cpu.data     0.095070                       # miss rate for demand accesses
system.cpu.dcache.demand_miss_rate::total     0.095070                       # miss rate for demand accesses
system.cpu.dcache.overall_miss_rate::.cpu.data     0.095070                       # miss rate for overall accesses
system.cpu.dcache.overall_miss_rate::total     0.095070                       # miss rate for overall accesses
system.cpu.dcache.ReadReq_avg_miss_latency::.cpu.data 76893.145161                       # average ReadReq miss latency
[...]
system.l3bus.snoop_fanout::1                        0      0.00%    100.00% # Request fanout histogram
system.l3bus.snoop_fanout::overflows                0      0.00%    100.00% # Request fanout histogram
system.l3bus.snoop_fanout::min_value                0                       # Request fanout histogram
system.l3bus.snoop_fanout::max_value                0                       # Request fanout histogram
system.l3bus.snoop_fanout::total                  798                       # Request fanout histogram
system.l3bus.reqLayer0.occupancy               399000                       # Layer occupancy (ticks)
system.l3bus.reqLayer0.utilization                0.9                       # Layer utilization (%)
system.l3bus.respLayer0.occupancy             1995000                       # Layer occupancy (ticks)
system.l3bus.respLayer0.utilization               4.6                       # Layer utilization (%)
system.l3cache.tags.pwrStateResidencyTicks::UNDEFINED     43465500                       # Cumulative time (in ticks) in various power states
system.l3cache.tags.tagsinuse              401.596413                       # Cycle average of tags in use
system.l3cache.tags.total_refs                    798                       # Total number of references to valid blocks.
system.l3cache.tags.sampled_refs                  798                       # Sample count of references to valid blocks.
system.l3cache.tags.avg_refs                        1                       # Average number of references to valid blocks.
system.l3cache.tags.warmup_cycle                76000                       # Cycle when the warmup percentage was hit.
system.l3cache.tags.occ_blocks::.cpu.inst   254.245822                       # Average occupied blocks per requestor
system.l3cache.tags.occ_blocks::.cpu.data   147.350591                       # Average occupied blocks per requestor
system.l3cache.tags.occ_percent::.cpu.inst     0.007759                       # Average percentage of cache occupancy
system.l3cache.tags.occ_percent::.cpu.data     0.004497                       # Average percentage of cache occupancy
system.l3cache.tags.occ_percent::total       0.012256                       # Average percentage of cache occupancy
system.l3cache.tags.occ_task_id_blocks::1024          798                       # Occupied blocks per task id
system.l3cache.tags.age_task_id_blocks_1024::0          187                       # Occupied blocks per task id
system.l3cache.tags.age_task_id_blocks_1024::1          611                       # Occupied blocks per task id
system.l3cache.tags.occ_task_id_percent::1024     0.024353                       # Percentage of cache occupancy per task id
system.l3cache.tags.tag_accesses                13566                       # Number of tag accesses
system.l3cache.tags.data_accesses               13566                       # Number of data accesses
system.l3cache.pwrStateResidencyTicks::UNDEFINED     43465500                       # Cumulative time (in ticks) in various power states
system.l3cache.ReadExReq_misses::.cpu.data          124                       # number of ReadExReq misses
system.l3cache.ReadExReq_misses::total            124                       # number of ReadExReq misses
system.l3cache.ReadSharedReq_misses::.cpu.inst          542                       # number of ReadSharedReq misses
system.l3cache.ReadSharedReq_misses::.cpu.data          132                       # number of ReadSharedReq misses
system.l3cache.ReadSharedReq_misses::total          674                       # number of ReadSharedReq misses
system.l3cache.demand_misses::.cpu.inst           542                       # number of demand (read+write) misses
system.l3cache.demand_misses::.cpu.data           256                       # number of demand (read+write) misses
system.l3cache.demand_misses::total               798                       # number of demand (read+write) misses
system.l3cache.overall_misses::.cpu.inst          542                       # number of overall misses
system.l3cache.overall_misses::.cpu.data          256                       # number of overall misses
system.l3cache.overall_misses::total              798                       # number of overall misses
system.l3cache.ReadExReq_miss_latency::.cpu.data      8446500                       # number of ReadExReq miss cycles
system.l3cache.ReadExReq_miss_latency::total      8446500                       # number of ReadExReq miss cycles
system.l3cache.ReadSharedReq_miss_latency::.cpu.inst     38255500                       # number of ReadSharedReq miss cycles
system.l3cache.ReadSharedReq_miss_latency::.cpu.data      9502000                       # number of ReadSharedReq miss cycles
system.l3cache.ReadSharedReq_miss_latency::total     47757500                       # number of ReadSharedReq miss cycles
system.l3cache.demand_miss_latency::.cpu.inst     38255500                       # number of demand (read+write) miss cycles
system.l3cache.demand_miss_latency::.cpu.data     17948500                       # number of demand (read+write) miss cycles
system.l3cache.demand_miss_latency::total     56204000                       # number of demand (read+write) miss cycles
system.l3cache.overall_miss_latency::.cpu.inst     38255500                       # number of overall miss cycles
system.l3cache.overall_miss_latency::.cpu.data     17948500                       # number of overall miss cycles
system.l3cache.overall_miss_latency::total     56204000                       # number of overall miss cycles
system.l3cache.ReadExReq_accesses::.cpu.data          124                       # number of ReadExReq accesses(hits+misses)
system.l3cache.ReadExReq_accesses::total          124                       # number of ReadExReq accesses(hits+misses)
system.l3cache.ReadSharedReq_accesses::.cpu.inst          542                       # number of ReadSharedReq accesses(hits+misses)
system.l3cache.ReadSharedReq_accesses::.cpu.data          132                       # number of ReadSharedReq accesses(hits+misses)
system.l3cache.ReadSharedReq_accesses::total          674                       # number of ReadSharedReq accesses(hits+misses)
system.l3cache.demand_accesses::.cpu.inst          542                       # number of demand (read+write) accesses
system.l3cache.demand_accesses::.cpu.data          256                       # number of demand (read+write) accesses
system.l3cache.demand_accesses::total             798                       # number of demand (read+write) accesses
system.l3cache.overall_accesses::.cpu.inst          542                       # number of overall (read+write) accesses
system.l3cache.overall_accesses::.cpu.data          256                       # number of overall (read+write) accesses
system.l3cache.overall_accesses::total            798                       # number of overall (read+write) accesses
system.l3cache.ReadExReq_miss_rate::.cpu.data            1                       # miss rate for ReadExReq accesses
system.l3cache.ReadExReq_miss_rate::total            1                       # miss rate for ReadExReq accesses
system.l3cache.ReadSharedReq_miss_rate::.cpu.inst            1                       # miss rate for ReadSharedReq accesses
system.l3cache.ReadSharedReq_miss_rate::.cpu.data            1                       # miss rate for ReadSharedReq accesses
system.l3cache.ReadSharedReq_miss_rate::total            1                       # miss rate for ReadSharedReq accesses
system.l3cache.demand_miss_rate::.cpu.inst            1                       # miss rate for demand accesses
system.l3cache.demand_miss_rate::.cpu.data            1                       # miss rate for demand accesses
system.l3cache.demand_miss_rate::total              1                       # miss rate for demand accesses
system.l3cache.overall_miss_rate::.cpu.inst            1                       # miss rate for overall accesses
system.l3cache.overall_miss_rate::.cpu.data            1                       # miss rate for overall accesses
system.l3cache.overall_miss_rate::total             1                       # miss rate for overall accesses
system.l3cache.ReadExReq_avg_miss_latency::.cpu.data 68116.935484                       # average ReadExReq miss latency
system.l3cache.ReadExReq_avg_miss_latency::total 68116.935484                       # average ReadExReq miss latency
system.l3cache.ReadSharedReq_avg_miss_latency::.cpu.inst 70582.103321                       # average ReadSharedReq miss latency
system.l3cache.ReadSharedReq_avg_miss_latency::.cpu.data 71984.848485                       # average ReadSharedReq miss latency
system.l3cache.ReadSharedReq_avg_miss_latency::total 70856.824926                       # average ReadSharedReq miss latency
system.l3cache.demand_avg_miss_latency::.cpu.inst 70582.103321                       # average overall miss latency
system.l3cache.demand_avg_miss_latency::.cpu.data 70111.328125                       # average overall miss latency
system.l3cache.demand_avg_miss_latency::total 70431.077694                       # average overall miss latency
system.l3cache.overall_avg_miss_latency::.cpu.inst 70582.103321                       # average overall miss latency
system.l3cache.overall_avg_miss_latency::.cpu.data 70111.328125                       # average overall miss latency
system.l3cache.overall_avg_miss_latency::total 70431.077694                       # average overall miss latency
system.l3cache.blocked_cycles::no_mshrs             0                       # number of cycles access was blocked
system.l3cache.blocked_cycles::no_targets            0                       # number of cycles access was blocked
system.l3cache.blocked::no_mshrs                    0                       # number of cycles access was blocked
system.l3cache.blocked::no_targets                  0                       # number of cycles access was blocked
system.l3cache.avg_blocked_cycles::no_mshrs          nan                       # average number of cycles each access was blocked
system.l3cache.avg_blocked_cycles::no_targets          nan                       # average number of cycles each access was blocked
system.l3cache.ReadExReq_mshr_misses::.cpu.data          124                       # number of ReadExReq MSHR misses
system.l3cache.ReadExReq_mshr_misses::total          124                       # number of ReadExReq MSHR misses
system.l3cache.ReadSharedReq_mshr_misses::.cpu.inst          542                       # number of ReadSharedReq MSHR misses
system.l3cache.ReadSharedReq_mshr_misses::.cpu.data          132                       # number of ReadSharedReq MSHR misses
system.l3cache.ReadSharedReq_mshr_misses::total          674                       # number of ReadSharedReq MSHR misses
system.l3cache.demand_mshr_misses::.cpu.inst          542                       # number of demand (read+write) MSHR misses
system.l3cache.demand_mshr_misses::.cpu.data          256                       # number of demand (read+write) MSHR misses
system.l3cache.demand_mshr_misses::total          798                       # number of demand (read+write) MSHR misses
system.l3cache.overall_mshr_misses::.cpu.inst          542                       # number of overall MSHR misses
system.l3cache.overall_mshr_misses::.cpu.data          256                       # number of overall MSHR misses
system.l3cache.overall_mshr_misses::total          798                       # number of overall MSHR misses
system.l3cache.ReadExReq_mshr_miss_latency::.cpu.data      8198500                       # number of ReadExReq MSHR miss cycles
system.l3cache.ReadExReq_mshr_miss_latency::total      8198500                       # number of ReadExReq MSHR miss cycles
system.l3cache.ReadSharedReq_mshr_miss_latency::.cpu.inst     37171500                       # number of ReadSharedReq MSHR miss cycles
system.l3cache.ReadSharedReq_mshr_miss_latency::.cpu.data      9238000                       # number of ReadSharedReq MSHR miss cycles
system.l3cache.ReadSharedReq_mshr_miss_latency::total     46409500                       # number of ReadSharedReq MSHR miss cycles
system.l3cache.demand_mshr_miss_latency::.cpu.inst     37171500                       # number of demand (read+write) MSHR miss cycles
system.l3cache.demand_mshr_miss_latency::.cpu.data     17436500                       # number of demand (read+write) MSHR miss cycles
system.l3cache.demand_mshr_miss_latency::total     54608000                       # number of demand (read+write) MSHR miss cycles
system.l3cache.overall_mshr_miss_latency::.cpu.inst     37171500                       # number of overall MSHR miss cycles
system.l3cache.overall_mshr_miss_latency::.cpu.data     17436500                       # number of overall MSHR miss cycles
system.l3cache.overall_mshr_miss_latency::total     54608000                       # number of overall MSHR miss cycles
system.l3cache.ReadExReq_mshr_miss_rate::.cpu.data            1                       # mshr miss rate for ReadExReq accesses
system.l3cache.ReadExReq_mshr_miss_rate::total            1                       # mshr miss rate for ReadExReq accesses
system.l3cache.ReadSharedReq_mshr_miss_rate::.cpu.inst            1                       # mshr miss rate for ReadSharedReq accesses
system.l3cache.ReadSharedReq_mshr_miss_rate::.cpu.data            1                       # mshr miss rate for ReadSharedReq accesses
system.l3cache.ReadSharedReq_mshr_miss_rate::total            1                       # mshr miss rate for ReadSharedReq accesses
system.l3cache.demand_mshr_miss_rate::.cpu.inst            1                       # mshr miss rate for demand accesses
system.l3cache.demand_mshr_miss_rate::.cpu.data            1                       # mshr miss rate for demand accesses
system.l3cache.demand_mshr_miss_rate::total            1                       # mshr miss rate for demand accesses
system.l3cache.overall_mshr_miss_rate::.cpu.inst            1                       # mshr miss rate for overall accesses
system.l3cache.overall_mshr_miss_rate::.cpu.data            1                       # mshr miss rate for overall accesses
system.l3cache.overall_mshr_miss_rate::total            1                       # mshr miss rate for overall accesses
system.l3cache.ReadExReq_avg_mshr_miss_latency::.cpu.data 66116.935484                       # average ReadExReq mshr miss latency
system.l3cache.ReadExReq_avg_mshr_miss_latency::total 66116.935484                       # average ReadExReq mshr miss latency
system.l3cache.ReadSharedReq_avg_mshr_miss_latency::.cpu.inst 68582.103321                       # average ReadSharedReq mshr miss latency
system.l3cache.ReadSharedReq_avg_mshr_miss_latency::.cpu.data 69984.848485                       # average ReadSharedReq mshr miss latency
system.l3cache.ReadSharedReq_avg_mshr_miss_latency::total 68856.824926                       # average ReadSharedReq mshr miss latency
system.l3cache.demand_avg_mshr_miss_latency::.cpu.inst 68582.103321                       # average overall mshr miss latency
system.l3cache.demand_avg_mshr_miss_latency::.cpu.data 68111.328125                       # average overall mshr miss latency
system.l3cache.demand_avg_mshr_miss_latency::total 68431.077694                       # average overall mshr miss latency
system.l3cache.overall_avg_mshr_miss_latency::.cpu.inst 68582.103321                       # average overall mshr miss latency
system.l3cache.overall_avg_mshr_miss_latency::.cpu.data 68111.328125                       # average overall mshr miss latency
system.l3cache.overall_avg_mshr_miss_latency::total 68431.077694                       # average overall mshr miss latency
system.l3cache.replacements                         0                       # number of replacements
system.membus.snoop_filter.tot_requests           798                       # Total number of requests made to the snoop filter.
system.membus.snoop_filter.hit_single_requests            0                       # Number of requests hitting in the snoop filter with a single holder of the requested data.
system.membus.snoop_filter.hit_multi_requests            0                       # Number of requests hitting in the snoop filter with multiple (>1) holders of the requested data.
system.membus.snoop_filter.tot_snoops               0                       # Total number of snoops made to the snoop filter.
system.membus.snoop_filter.hit_single_snoops            0                       # Number of snoops hitting in the snoop filter with a single holder of the requested data.
system.membus.snoop_filter.hit_multi_snoops            0                       # Number of snoops hitting in the snoop filter with multiple (>1) holders of the requested data.
system.membus.pwrStateResidencyTicks::UNDEFINED     43465500                       # Cumulative time (in ticks) in various power states
system.membus.trans_dist::ReadResp                674                       # Transaction distribution
system.membus.trans_dist::ReadExReq               124                       # Transaction distribution
system.membus.trans_dist::ReadExResp              124                       # Transaction distribution
system.membus.trans_dist::ReadSharedReq           674                       # Transaction distribution
system.membus.pkt_count_system.l3cache.mem_side::system.mem_ctrl.port         1596                       # Packet count per connected master and slave (bytes)
system.membus.pkt_count_system.l3cache.mem_side::total         1596                       # Packet count per connected master and slave (bytes)
system.membus.pkt_count::total                   1596                       # Packet count per connected master and slave (bytes)
system.membus.pkt_size_system.l3cache.mem_side::system.mem_ctrl.port        51072                       # Cumulative packet size per connected master and slave (bytes)
system.membus.pkt_size_system.l3cache.mem_side::total        51072                       # Cumulative packet size per connected master and slave (bytes)
system.membus.pkt_size::total                   51072                       # Cumulative packet size per connected master and slave (bytes)
system.membus.snoops                                0                       # Total snoops (count)
system.membus.snoopTraffic                          0                       # Total snoop traffic (bytes)
system.membus.snoop_fanout::samples               798                       # Request fanout histogram
system.membus.snoop_fanout::mean                    0                       # Request fanout histogram
system.membus.snoop_fanout::stdev                   0                       # Request fanout histogram
system.membus.snoop_fanout::underflows              0      0.00%      0.00% # Request fanout histogram
system.membus.snoop_fanout::0                     798    100.00%    100.00% # Request fanout histogram
system.membus.snoop_fanout::1                       0      0.00%    100.00% # Request fanout histogram
system.membus.snoop_fanout::overflows               0      0.00%    100.00% # Request fanout histogram
system.membus.snoop_fanout::min_value               0                       # Request fanout histogram
system.membus.snoop_fanout::max_value               0                       # Request fanout histogram
system.membus.snoop_fanout::total                 798                       # Request fanout histogram
system.membus.reqLayer0.occupancy              399000                       # Layer occupancy (ticks)
system.membus.reqLayer0.utilization               0.9                       # Layer utilization (%)
system.membus.respLayer0.occupancy            2173000                       # Layer occupancy (ticks)
system.membus.respLayer0.utilization              5.0                       # Layer utilization (%)

---------- End Simulation Statistics   ----------